Questionable use of curly braces in "b2 f_out 0 v=if((time>2m),{v(sw1)},{v(sw2)})"
    Error: undefined symbol in: "[v](sw1)"
Questionable use of curly braces in "b2 f_out 0 v=if((time>2m),(v(sw1)),{v(sw2)})"
    Error: undefined symbol in: "[v](sw2)"
Circuit: * Z:\mnt\Documentos\Facultad\Electronica Aplicada III\Practicos\repo\EAIII\TP 3\simulaciones\escalon_frec\esc_frec.asc

WARNING: Less than two connections to node F_OUT.  This node is used by B2.
.OP point found by inspection.

Date: Tue Sep 22 20:07:00 2020
Total elapsed time: 5.951 seconds.

tnom = 27
temp = 27
method = modified trap
totiter = 1009320
traniter = 1009320
tranpoints = 504661
accept = 504510
rejected = 151
matrix size = 6
fillins = 0
solver = Normal
Matrix Compiler1: 110 bytes object code size  0.1/0.1/[0.1]
Matrix Compiler2: 266 bytes object code size  0.1/0.2/[0.1]

