Circuit: * Z:\mnt\Documentos\Facultad\Electronica Aplicada III\Practicos\repo\EAIII\TP 3\simulaciones\PLL\PLL.asc

WARNING: Less than two connections to node N005.  This node is used by D:U1:3.
WARNING: Less than two connections to node NC_01.  This node is used by R:U2:OUT0:OUT.
WARNING: Less than two connections to node NC_02.  This node is used by R:U2:OUT1:OUT.
WARNING: Less than two connections to node NC_03.  This node is used by R:U2:OUT2:OUT.
WARNING: Less than two connections to node NC_04.  This node is used by R:U2:OUT3:OUT.
WARNING: Less than two connections to node NC_05.  This node is used by R:U2:OUT4:OUT.
WARNING: Less than two connections to node NC_06.  This node is used by R:U2:OUT5:OUT.
WARNING: Less than two connections to node NC_07.  This node is used by R:U2:OUT6:OUT.
WARNING: Less than two connections to node NC_08.  This node is used by R:U2:OUT7:OUT.
WARNING: Less than two connections to node NC_09.  This node is used by R:U2:OUT8:OUT.
WARNING: Less than two connections to node NC_10.  This node is used by R:U2:OUT9:OUT.
Direct Newton iteration for .op point succeeded.
Ignoring empty pin current: Ix(u2:vdd)
Ignoring empty pin current: Ix(u2:vdd)

Date: Sun Aug 30 16:39:00 2020
Total elapsed time: 37.522 seconds.

tnom = 27
temp = 27
method = modified trap
totiter = 820645
traniter = 820623
tranpoints = 244553
accept = 183949
rejected = 60604
matrix size = 122
fillins = 2
solver = Normal
Thread vector: 26.8/13.8[4] 8.9/5.8[4] 9.4/4.6[4] 0.5/3.0[1]  2592/500
Matrix Compiler1: 3.75 KB object code size  3.4/2.4/[0.7]
Matrix Compiler2: 6.51 KB object code size  2.1/3.6/[0.9]

