Questionable use of curly braces in "b1 f_in 0 v=if((time>1.5m),{v(sw2)},{v(sw1)})"
    Error: undefined symbol in: "[v](sw2)"
Questionable use of curly braces in "b1 f_in 0 v=if((time>1.5m),(v(sw2)),{v(sw1)})"
    Error: undefined symbol in: "[v](sw1)"
Circuit: * Z:\mnt\Documentos\Facultad\Electronica Aplicada III\Practicos\repo\EAIII\TP 3\simulaciones\PLL\PLL.asc

WARNING: Less than two connections to node N005.  This node is used by D:U1:3.
WARNING: Less than two connections to node NC_01.  This node is used by R:U2:OUT0:OUT.
WARNING: Less than two connections to node NC_02.  This node is used by R:U2:OUT1:OUT.
WARNING: Less than two connections to node NC_03.  This node is used by R:U2:OUT2:OUT.
WARNING: Less than two connections to node NC_04.  This node is used by R:U2:OUT3:OUT.
WARNING: Less than two connections to node NC_05.  This node is used by R:U2:OUT4:OUT.
WARNING: Less than two connections to node NC_06.  This node is used by R:U2:OUT5:OUT.
WARNING: Less than two connections to node NC_07.  This node is used by R:U2:OUT6:OUT.
WARNING: Less than two connections to node NC_08.  This node is used by R:U2:OUT7:OUT.
WARNING: Less than two connections to node NC_09.  This node is used by R:U2:OUT8:OUT.
WARNING: Less than two connections to node NC_10.  This node is used by R:U2:OUT9:OUT.
Direct Newton iteration for .op point succeeded.
Ignoring empty pin current: Ix(u2:vdd)
Ignoring empty pin current: Ix(u2:vdd)

Date: Sun Aug 30 19:31:20 2020
Total elapsed time: 86.634 seconds.

tnom = 27
temp = 27
method = modified trap
totiter = 905939
traniter = 905917
tranpoints = 275665
accept = 209050
rejected = 66615
matrix size = 126
fillins = 0
solver = Normal
Thread vector: 18.3/13.9[4] 9.1/7.5[2] 6.6/19.3[1] 0.6/2.9[1]  2592/500
Matrix Compiler1: 3.77 KB object code size  3.2/2.3/[0.8]
Matrix Compiler2: 6.66 KB object code size  2.9/3.6/[1.1]

