Questionable use of curly braces in "b1 f_in 0 v=if((time>2.5m),{v(sw2)},{v(sw1)})"
    Error: undefined symbol in: "[v](sw2)"
Questionable use of curly braces in "b1 f_in 0 v=if((time>2.5m),(v(sw2)),{v(sw1)})"
    Error: undefined symbol in: "[v](sw1)"
Circuit: * Z:\mnt\Documentos\Facultad\Electronica Aplicada III\Practicos\repo\EAIII\TP 3\simulaciones\PLL\PLL.asc

WARNING: Less than two connections to node N005.  This node is used by D:U1:3.
WARNING: Less than two connections to node NC_01.  This node is used by R:U2:OUT0:OUT.
WARNING: Less than two connections to node NC_02.  This node is used by R:U2:OUT1:OUT.
WARNING: Less than two connections to node NC_03.  This node is used by R:U2:OUT2:OUT.
WARNING: Less than two connections to node NC_04.  This node is used by R:U2:OUT3:OUT.
WARNING: Less than two connections to node NC_05.  This node is used by R:U2:OUT4:OUT.
WARNING: Less than two connections to node NC_06.  This node is used by R:U2:OUT5:OUT.
WARNING: Less than two connections to node NC_07.  This node is used by R:U2:OUT6:OUT.
WARNING: Less than two connections to node NC_08.  This node is used by R:U2:OUT7:OUT.
WARNING: Less than two connections to node NC_09.  This node is used by R:U2:OUT8:OUT.
WARNING: Less than two connections to node NC_10.  This node is used by R:U2:OUT9:OUT.
Direct Newton iteration for .op point succeeded.
Ignoring empty pin current: Ix(u2:vdd)
Ignoring empty pin current: Ix(u2:vdd)

Date: Sun Sep 20 21:44:59 2020
Total elapsed time: 114.938 seconds.

tnom = 27
temp = 27
method = modified trap
totiter = 1460542
traniter = 1460520
tranpoints = 640947
accept = 594229
rejected = 46718
matrix size = 126
fillins = 0
solver = Normal
Thread vector: 13.9/11.3[4] 9.2/5.3[4] 6.7/4.5[4] 0.5/2.1[1]  2592/500
Matrix Compiler1: 3.77 KB object code size  3.5/2.4/[0.7]
Matrix Compiler2: 6.66 KB object code size  2.1/3.6/[0.7]

