Circuit: * Z:\mnt\Documentos\Facultad\Electronica Aplicada III\Practicos\repo\EAIII\TP 3\simulaciones\PLL.asc

WARNING: Less than two connections to node N006.  This node is used by D:U1:3.
WARNING: Less than two connections to node NC_01.  This node is used by R:U2:OUT0:OUT.
WARNING: Less than two connections to node NC_02.  This node is used by R:U2:OUT1:OUT.
WARNING: Less than two connections to node NC_03.  This node is used by R:U2:OUT2:OUT.
WARNING: Less than two connections to node NC_04.  This node is used by R:U2:OUT3:OUT.
WARNING: Less than two connections to node NC_05.  This node is used by R:U2:OUT4:OUT.
WARNING: Less than two connections to node NC_06.  This node is used by R:U2:OUT5:OUT.
WARNING: Less than two connections to node NC_07.  This node is used by R:U2:OUT6:OUT.
WARNING: Less than two connections to node NC_08.  This node is used by R:U2:OUT7:OUT.
WARNING: Less than two connections to node NC_09.  This node is used by R:U2:OUT8:OUT.
WARNING: Less than two connections to node NC_10.  This node is used by R:U2:OUT9:OUT.
Direct Newton iteration for .op point succeeded.
Ignoring empty pin current: Ix(u2:vdd)
Ignoring empty pin current: Ix(u2:vdd)
Heightened Def Con from 1.7906e-005 to 1.79071e-005
Heightened Def Con from 1.8368e-005 to 1.83691e-005
Heightened Def Con from 3.32007e-005 +++++++++++++++++++++++++++++++to 3.32019e-005
Heightened Def Con from 3.36568e-005 +++++++++++++++++++++++++++++to 3.3658e-005
Heightened Def Con from 6.10952e-005 ++++++++++++++++++++++++++++++to 6.10962e-005
Heightened Def Con from 8.678e-005 +++++++++++++++++++++++++++++to 8.67811e-005
Heightened Def Con from 8.76684e-005 ++++++++++++++++++++++++++++to 8.76695e-005
Heightened Def Con from 8.85689e-005 +++++++++++++++++++++++++++++to 8.85701e-005
Heightened Def Con from 0.000212036 to 0.000212037
Heightened Def Con from 0.000287729 to 0.00028773
Heightened Def Con from 0.000288185 +++++++++++++++++++++++++++++to 0.000288186
Heightened Def Con from 0.000290813 +++++++++++++++++++++++++++++to 0.000290814
Heightened Def Con from 0.000295178 +++++++++++++++++++++++++++++to 0.000295179
Heightened Def Con from 0.000299542 +++++++++++++++++++++++++++++to 0.000299544
Heightened Def Con from 0.000303907 +++++++++++++++++++++++++++++to 0.000303908
Heightened Def Con from 0.000308272 +++++++++++++++++++++++++++++to 0.000308273
Heightened Def Con from 0.000312637 +++++++++++++++++++++++++++++to 0.000312638
Heightened Def Con from 0.000317001 +++++++++++++++++++++++++++++to 0.000317002
Heightened Def Con from 0.000321366 +++++++++++++++++++++++++++++to 0.000321367
Heightened Def Con from 0.000325731 +++++++++++++++++++++++++++++to 0.000325732
Heightened Def Con from 0.000330095 +++++++++++++++++++++++++++++to 0.000330097
Heightened Def Con from 0.00033446 +++++++++++++++++++++++++++++to 0.000334461
Heightened Def Con from 0.000338825 +++++++++++++++++++++++++++++to 0.000338826
Heightened Def Con from 0.00034319 +++++++++++++++++++++++++++++to 0.000343191
Heightened Def Con from 0.000347554 +++++++++++++++++++++++++++++to 0.000347556
Heightened Def Con from 0.000351919 +++++++++++++++++++++++++++++to 0.00035192
Heightened Def Con from 0.000356284 +++++++++++++++++++++++++++++to 0.000356285
Heightened Def Con from 0.000360649 +++++++++++++++++++++++++++++to 0.00036065
Heightened Def Con from 0.000365013 +++++++++++++++++++++++++++++to 0.000365014
Heightened Def Con from 0.000369378 +++++++++++++++++++++++++++++to 0.000369379
Heightened Def Con from 0.000373743 +++++++++++++++++++++++++++++to 0.000373744
Heightened Def Con from 0.000378107 +++++++++++++++++++++++++++++to 0.000378109
Heightened Def Con from 0.000382472 +++++++++++++++++++++++++++++to 0.000382473
Heightened Def Con from 0.000386837 +++++++++++++++++++++++++++++to 0.000386838
Heightened Def Con from 0.000391202 +++++++++++++++++++++++++++++to 0.000391203
Heightened Def Con from 0.000395566 +++++++++++++++++++++++++++++to 0.000395567
Heightened Def Con from 0.000399931 +++++++++++++++++++++++++++++to 0.000399932
Heightened Def Con from 0.000404296 +++++++++++++++++++++++++++++to 0.000404297
Heightened Def Con from 0.000408661 +++++++++++++++++++++++++++++to 0.000408662
Heightened Def Con from 0.000491328 +++++++++++++++++++++++++++++to 0.000491329
Heightened Def Con from 0.000495692 +++++++++++++++++++++++++++++to 0.000495694
Heightened Def Con from 0.000500057 +++++++++++++++++++++++++++++to 0.000500058
Heightened Def Con from 0.000504422 +++++++++++++++++++++++++++++to 0.000504423
Heightened Def Con from 0.000508787 +++++++++++++++++++++++++++++to 0.000508788
Heightened Def Con from 0.000513151 +++++++++++++++++++++++++++++to 0.000513152
Heightened Def Con from 0.000517516 +++++++++++++++++++++++++++++to 0.000517517
Heightened Def Con from 0.000521881 +++++++++++++++++++++++++++++to 0.000521882
Heightened Def Con from 0.000526246 +++++++++++++++++++++++++++++to 0.000526247
Heightened Def Con from 0.00053061 +++++++++++++++++++++++++++++to 0.000530611
Heightened Def Con from 0.000534975 +++++++++++++++++++++++++++++to 0.000534976
Heightened Def Con from 0.00053934 +++++++++++++++++++++++++++++to 0.000539341
Heightened Def Con from 0.000543705 +++++++++++++++++++++++++++++to 0.000543706
Heightened Def Con from 0.00054807 +++++++++++++++++++++++++++++to 0.000548071
Heightened Def Con from 0.000552435 +++++++++++++++++++++++++++++to 0.000552436
Heightened Def Con from 0.000556799 +++++++++++++++++++++++++++++to 0.0005568
Heightened Def Con from 0.000561164 +++++++++++++++++++++++++++++to 0.000561165
Heightened Def Con from 0.000565529 +++++++++++++++++++++++++++++to 0.00056553
Heightened Def Con from 0.000569893 +++++++++++++++++++++++++++++to 0.000569895
Heightened Def Con from 0.000574258 +++++++++++++++++++++++++++++to 0.000574259
Heightened Def Con from 0.000578623 +++++++++++++++++++++++++++++to 0.000578624
Heightened Def Con from 0.000582988 +++++++++++++++++++++++++++++to 0.000582989
Heightened Def Con from 0.000587352 +++++++++++++++++++++++++++++to 0.000587353
Heightened Def Con from 0.000591717 +++++++++++++++++++++++++++++to 0.000591718
Heightened Def Con from 0.000596082 +++++++++++++++++++++++++++++to 0.000596083
Heightened Def Con from 0.000600446 +++++++++++++++++++++++++++++to 0.000600448
Heightened Def Con from 0.000604811 +++++++++++++++++++++++++++++to 0.000604812
Heightened Def Con from 0.000609176 +++++++++++++++++++++++++++++to 0.000609177
Heightened Def Con from 0.00069009 +++++++++++++++++++++++++++++to 0.000690091
Heightened Def Con from 0.00069185 +++++++++++++++++++++++++++++to 0.000691851
Heightened Def Con from 0.000696214 +++++++++++++++++++++++++++++to 0.000696216
Heightened Def Con from 0.000700579 +++++++++++++++++++++++++++++to 0.00070058
Heightened Def Con from 0.000704944 +++++++++++++++++++++++++++++to 0.000704945
Heightened Def Con from 0.000709309 +++++++++++++++++++++++++++++to 0.00070931
Heightened Def Con from 0.000713673 +++++++++++++++++++++++++++++to 0.000713674
Heightened Def Con from 0.000718038 +++++++++++++++++++++++++++++to 0.000718039
Heightened Def Con from 0.000722402 +++++++++++++++++++++++++++++to 0.000722403
Heightened Def Con from 0.000726767 +++++++++++++++++++++++++++++to 0.000726768
Heightened Def Con from 0.000731131 +++++++++++++++++++++++++++++to 0.000731132
Heightened Def Con from 0.000735496 +++++++++++++++++++++++++++++to 0.000735497
Heightened Def Con from 0.000739861 +++++++++++++++++++++++++++++to 0.000739862
Heightened Def Con from 0.000744225 +++++++++++++++++++++++++++++to 0.000744227
Heightened Def Con from 0.00074859 +++++++++++++++++++++++++++++to 0.000748591
Heightened Def Con from 0.000752955 +++++++++++++++++++++++++++++to 0.000752956
Heightened Def Con from 0.00075732 +++++++++++++++++++++++++++++to 0.000757321
Heightened Def Con from 0.000761684 +++++++++++++++++++++++++++++to 0.000761685
Heightened Def Con from 0.000766049 +++++++++++++++++++++++++++++to 0.00076605
Heightened Def Con from 0.000770414 +++++++++++++++++++++++++++++to 0.000770415
Heightened Def Con from 0.000774779 +++++++++++++++++++++++++++++to 0.00077478
Heightened Def Con from 0.000779143 +++++++++++++++++++++++++++++to 0.000779144
Heightened Def Con from 0.000783508 +++++++++++++++++++++++++++++to 0.000783509
Heightened Def Con from 0.000787873 +++++++++++++++++++++++++++++to 0.000787874
Heightened Def Con from 0.000792237 +++++++++++++++++++++++++++++to 0.000792239
Heightened Def Con from 0.000796602 +++++++++++++++++++++++++++++to 0.000796603
Heightened Def Con from 0.000800967 +++++++++++++++++++++++++++++to 0.000800968
Heightened Def Con from 0.000805332 +++++++++++++++++++++++++++++to 0.000805333
Heightened Def Con from 0.000891476 +++++++++++++++++++++++++++++to 0.000891477
Heightened Def Con from 0.000892367 ++++++++++++++++++++++++++++++to 0.000892368
Heightened Def Con from 0.0008968 +++++++++++++++++++++++++++++to 0.000896801
Heightened Def Con from 0.000901165 +++++++++++++++++++++++++++++to 0.000901166
Heightened Def Con from 0.000905529 +++++++++++++++++++++++++++++to 0.00090553
Heightened Def Con from 0.000909894 +++++++++++++++++++++++++++++to 0.000909895
Heightened Def Con from 0.000914259 +++++++++++++++++++++++++++++to 0.00091426
Heightened Def Con from 0.000918623 +++++++++++++++++++++++++++++to 0.000918625
Heightened Def Con from 0.000922988 +++++++++++++++++++++++++++++to 0.000922989
Heightened Def Con from 0.000927353 +++++++++++++++++++++++++++++to 0.000927354
Heightened Def Con from 0.000931718 +++++++++++++++++++++++++++++to 0.000931719
Heightened Def Con from 0.000936082 +++++++++++++++++++++++++++++to 0.000936083
Heightened Def Con from 0.000940447 +++++++++++++++++++++++++++++to 0.000940448
Heightened Def Con from 0.000944812 +++++++++++++++++++++++++++++to 0.000944813
Heightened Def Con from 0.000949176 +++++++++++++++++++++++++++++to 0.000949178
Heightened Def Con from 0.000953541 +++++++++++++++++++++++++++++to 0.000953542
Heightened Def Con from 0.000957906 +++++++++++++++++++++++++++++to 0.000957907
Heightened Def Con from 0.000962271 +++++++++++++++++++++++++++++to 0.000962272
Heightened Def Con from 0.000966635 +++++++++++++++++++++++++++++to 0.000966636
Heightened Def Con from 0.000971 +++++++++++++++++++++++++++++to 0.000971001
Heightened Def Con from 0.000975365 +++++++++++++++++++++++++++++to 0.000975366
Heightened Def Con from 0.0010078 ++++++++++++++++++++++++++++++to 0.0010078
Heightened Def Con from 0.00120741 +++++++++++++++++++++++++++++++to 0.00120741
Heightened Def Con from 0.00120787 +++++++++++++++++++++++++++++to 0.00120787
Heightened Def Con from 0.00140617 +++++++++++++++++++++++to 0.00140617
Heightened Def Con from 0.00140707 +++++++++++++++++++++++++++++to 0.00140707
Heightened Def Con from 0.00169414 +++++++++++++++++++++++++++++to 0.00169414
Heightened Def Con from 0.00180498 ++++++++++++++++++++++++++++++to 0.00180498
Heightened Def Con from 0.00195424 to 0.00195424
Heightened Def Con from 0.0019587 to 0.0019587
Heightened Def Con from 0.00196316 to 0.00196316
Heightened Def Con from 0.00196762 to 0.00196762
Heightened Def Con from 0.00197208 to 0.00197208
Heightened Def Con from 0.00197654 to 0.00197654
Heightened Def Con from 0.001981 to 0.001981
Heightened Def Con from 0.00198546 to 0.00198546
Heightened Def Con from 0.00198991 to 0.00198992
Heightened Def Con from 0.00199437 to 0.00199438
Heightened Def Con from 0.00199883 to 0.00199883
Heightened Def Con from 0.00202072 to 0.00202072
Heightened Def Con from 0.00202518 to 0.00202518
Heightened Def Con from 0.00202964 to 0.00202964
Heightened Def Con from 0.0020341 to 0.0020341
Heightened Def Con from 0.00203856 to 0.00203856
Heightened Def Con from 0.0020412 +++++++++++++++++++++++++++++to 0.0020412
Heightened Def Con from 0.00205948 to 0.00205948
Heightened Def Con from 0.00205948 ++++++++++++++++++++++++++++to 0.00205948
Heightened Def Con from 0.00205995 ++++++++++++++++++++++++++++++to 0.00205995
Heightened Def Con from 0.00206482 to 0.00206482
Heightened Def Con from 0.00206928 to 0.00206928
Heightened Def Con from 0.00207374 to 0.00207374
Heightened Def Con from 0.0020782 to 0.0020782
Heightened Def Con from 0.00209868 ++++++++++++++++++++++++++++++to 0.00209868
Heightened Def Con from 0.00209913 to 0.00209913
Heightened Def Con from 0.0020996 ++++++++++++++++++++++++++++++to 0.0020996
Heightened Def Con from 0.00210447 to 0.00210447
Heightened Def Con from 0.00210893 to 0.00210893
Heightened Def Con from 0.00211339 to 0.00211339
Heightened Def Con from 0.00211785 to 0.00211785
Heightened Def Con from 0.00212093 ++++++++++++++++++++++to 0.00212093
Heightened Def Con from 0.00212183 to 0.00212183
Heightened Def Con from 0.00212183 +++++++++++++++++++++++++++++++to 0.00212183
Heightened Def Con from 0.0021223 ++++++++++++++++++++++++++++++to 0.0021223
Heightened Def Con from 0.00212275 +++++++++++++++++++++++++++++to 0.00212276
Heightened Def Con from 0.0021393 ++++++++++++++++++++++++++++++to 0.0021393
Heightened Def Con from 0.00213976 to 0.00213976
Heightened Def Con from 0.00213976 +++++++++++++++++++++++++++++++to 0.00213976
Heightened Def Con from 0.00214022 +++++++++++++++++++++++++++++to 0.00214022
Heightened Def Con from 0.00214422 to 0.00214422
Heightened Def Con from 0.00214868 to 0.00214868
Heightened Def Con from 0.00215314 to 0.00215314
Heightened Def Con from 0.0021576 to 0.0021576
Heightened Def Con from 0.00217939 +++++++++++++++++++++++++++++to 0.00217939
Heightened Def Con from 0.00218382 to 0.00218383
Heightened Def Con from 0.00218828 to 0.00218828
Heightened Def Con from 0.00219274 to 0.00219274
Heightened Def Con from 0.0021972 to 0.0021972
Heightened Def Con from 0.0022016 +++++++++++++++++++++++++++++++to 0.00220161
Heightened Def Con from 0.00220206 +++++++++++++++++++++++++++++to 0.00220206
Heightened Def Con from 0.00222036 +++++++++++++++++++++++++++++to 0.00222036
Heightened Def Con from 0.0022235 to 0.0022235
Heightened Def Con from 0.00222795 to 0.00222795
Heightened Def Con from 0.00223241 to 0.00223241
Heightened Def Con from 0.00223687 to 0.00223687
Heightened Def Con from 0.00224082 +++++++++++++++++++++++++++to 0.00224082
Heightened Def Con from 0.00224129 +++++++++++++++++++++++++++++++to 0.00224129
Heightened Def Con from 0.00224174 +++++++++++++++++++++++++++++to 0.00224175
Heightened Def Con from 0.00226004 +++++++++++++++++++++++++++++to 0.00226004
Heightened Def Con from 0.00226317 to 0.00226317
Heightened Def Con from 0.00226763 to 0.00226763
Heightened Def Con from 0.00227209 to 0.00227209
Heightened Def Con from 0.00227655 to 0.00227655
Heightened Def Con from 0.00228143 ++++++++++++++++++++++++++++++to 0.00228143
Heightened Def Con from 0.00228189 to 0.00228189
Heightened Def Con from 0.00228189 +++++++++++++++++++++++++++++++to 0.00228189
Heightened Def Con from 0.00228235 +++++++++++++++++++++++++++++to 0.00228235
Heightened Def Con from 0.00229977 +++++++++++++++++++++++++++++to 0.00229978
Heightened Def Con from 0.00230291 to 0.00230291
Heightened Def Con from 0.00230737 to 0.00230737
Heightened Def Con from 0.00231182 to 0.00231182
Heightened Def Con from 0.00231628 to 0.00231628
Heightened Def Con from 0.00232071 to 0.00232071
Heightened Def Con from 0.00232118 ++++++++++++++++++++++++++++++to 0.00232118
Heightened Def Con from 0.00233947 ++++++++++++++++++++++++++++++to 0.00233948
Heightened Def Con from 0.00234261 to 0.00234261
Heightened Def Con from 0.00234707 to 0.00234707
Heightened Def Con from 0.00235153 to 0.00235153
Heightened Def Con from 0.00235598 to 0.00235598
Heightened Def Con from 0.00236044 to 0.00236044
Heightened Def Con from 0.0023796 to 0.0023796
Heightened Def Con from 0.00238006 +++++++++++++++++++++++++++++to 0.00238006
Heightened Def Con from 0.00238232 to 0.00238232
Heightened Def Con from 0.00238678 to 0.00238678
Heightened Def Con from 0.00239124 to 0.00239124
Heightened Def Con from 0.0023957 to 0.0023957
Heightened Def Con from 0.00240016 to 0.00240016
Heightened Def Con from 0.00240107 ++++++++++++++++++++++++++++++to 0.00240107
Heightened Def Con from 0.00242203 to 0.00242203
Heightened Def Con from 0.00242649 to 0.00242649
Heightened Def Con from 0.00243095 to 0.00243095
Heightened Def Con from 0.00243541 to 0.00243541
Heightened Def Con from 0.00243987 to 0.00243987
Heightened Def Con from 0.00245949 +++++++++++++++++++++++++++++++to 0.00245949
Heightened Def Con from 0.00245996 ++++++++++++++++++++++++++++++to 0.00245996
Heightened Def Con from 0.00246041 to 0.00246041
Heightened Def Con from 0.00246131 +++++++++++++++++++++++++++++to 0.00246131
Heightened Def Con from 0.00246618 to 0.00246618
Heightened Def Con from 0.00247064 to 0.00247064
Heightened Def Con from 0.0024751 to 0.0024751
Heightened Def Con from 0.00247956 to 0.00247956
Heightened Def Con from 0.00249961 to 0.00249961
Heightened Def Con from 0.00249961 +++++++++++++++++++++++++++to 0.00249961
Heightened Def Con from 0.00250007 +++++++++++++++++++++++++++++to 0.00250007
Heightened Def Con from 0.00250146 to 0.00250146
Heightened Def Con from 0.00250592 to 0.00250592
Heightened Def Con from 0.00251038 to 0.00251038
Heightened Def Con from 0.00251484 to 0.00251484
Heightened Def Con from 0.0025193 to 0.0025193
Heightened Def Con from 0.00253587 to 0.00253587
Heightened Def Con from 0.00254118 to 0.00254118
Heightened Def Con from 0.00254564 to 0.00254564
Heightened Def Con from 0.00255009 to 0.00255009
Heightened Def Con from 0.00255455 to 0.00255455
Heightened Def Con from 0.00255901 to 0.00255901
Heightened Def Con from 0.00256126 ++++++++++++++++++++++++++++to 0.00256126
Heightened Def Con from 0.00256216 +++++++++++++++++++++++++++++to 0.00256216
Heightened Def Con from 0.00258096 to 0.00258096
Heightened Def Con from 0.00258541 to 0.00258541
Heightened Def Con from 0.00258987 to 0.00258987
Heightened Def Con from 0.00259433 to 0.00259433
Heightened Def Con from 0.00259879 to 0.00259879
Heightened Def Con from 0.0026197 to 0.0026197
Heightened Def Con from 0.00262017 ++++++++++++++++++++++++++++++to 0.00262017
Heightened Def Con from 0.00262504 to 0.00262504
Heightened Def Con from 0.0026295 to 0.0026295
Heightened Def Con from 0.00263395 to 0.00263395
Heightened Def Con from 0.00263841 to 0.00263841
Heightened Def Con from 0.00266028 to 0.00266029
Heightened Def Con from 0.00266474 to 0.00266474
Heightened Def Con from 0.0026692 to 0.0026692
Heightened Def Con from 0.00267366 to 0.00267366
Heightened Def Con from 0.00267812 to 0.00267812
Heightened Def Con from 0.00268077 ++++++++++++++++++++++++++++++to 0.00268077
Heightened Def Con from 0.00270434 to 0.00270434
Heightened Def Con from 0.0027088 to 0.0027088
Heightened Def Con from 0.00271326 to 0.00271326
Heightened Def Con from 0.00271772 to 0.00271772
Heightened Def Con from 0.0027208 to 0.0027208
Heightened Def Con from 0.0027208 ++++++++++++++++++++++++++++++to 0.00272081
Heightened Def Con from 0.00272127 +++++++++++++++++++++++++++++to 0.00272127
Heightened Def Con from 0.00274396 to 0.00274396
Heightened Def Con from 0.00274842 to 0.00274842
Heightened Def Con from 0.00275288 to 0.00275288
Heightened Def Con from 0.00275734 to 0.00275734
Heightened Def Con from 0.00276085 to 0.00276085
Heightened Def Con from 0.00276085 +++++++++++++++++++++++++++++to 0.00276085
Heightened Def Con from 0.00277958 ++++++++++++++++++++++++++++to 0.00277958
Heightened Def Con from 0.00278048 +++++++++++++++++++++++++++++to 0.00278048
Heightened Def Con from 0.00278361 to 0.00278361
Heightened Def Con from 0.00278807 to 0.00278807
Heightened Def Con from 0.00279253 to 0.00279253
Heightened Def Con from 0.00279699 to 0.00279699
Heightened Def Con from 0.0028232 to 0.0028232
Heightened Def Con from 0.00282766 to 0.00282766
Heightened Def Con from 0.00283212 to 0.00283212
Heightened Def Con from 0.00283658 to 0.00283658
Heightened Def Con from 0.00284099 to 0.00284099
Heightened Def Con from 0.00284099 ++++++++++++++++++++++++++++++to 0.00284099
Heightened Def Con from 0.00286284 to 0.00286284
Heightened Def Con from 0.0028673 to 0.0028673
Heightened Def Con from 0.00287176 to 0.00287176
Heightened Def Con from 0.00287621 to 0.00287621
Heightened Def Con from 0.00290244 to 0.00290244
Heightened Def Con from 0.0029069 to 0.0029069
Heightened Def Con from 0.00291136 to 0.00291136
Heightened Def Con from 0.00291582 to 0.00291582
Heightened Def Con from 0.00292028 to 0.00292028
Heightened Def Con from 0.00292075 ++++++++++++++++++++++++++++++to 0.00292075
Heightened Def Con from 0.00292121 +++++++++++++++++++++++++++++to 0.00292121
Heightened Def Con from 0.00292166 +++++++++++++++++++++++++++to 0.00292166
Heightened Def Con from 0.00292256 +++++++++++++++++++++++++++++to 0.00292257
Heightened Def Con from 0.00293999 +++++++++++++++++++++++++++++to 0.00293999
Heightened Def Con from 0.00294226 to 0.00294226
Heightened Def Con from 0.00294671 to 0.00294671
Heightened Def Con from 0.00295117 to 0.00295117
Heightened Def Con from 0.00295563 to 0.00295563
Heightened Def Con from 0.00296009 to 0.00296009
Heightened Def Con from 0.00298195 to 0.00298195
Heightened Def Con from 0.00298641 to 0.00298641
Heightened Def Con from 0.00299087 to 0.00299087
Heightened Def Con from 0.00299533 to 0.00299533
Heightened Def Con from 0.00299979 to 0.00299979
Heightened Def Con from 0.00300071 ++++++++++++++++++++++++++++++to 0.00300071
Heightened Def Con from 0.00300117 +++++++++++++++++++++++++++++to 0.00300117
Heightened Def Con from 0.00302034 +++++++++++++++++++++++++++++to 0.00302034
Heightened Def Con from 0.00302174 to 0.00302174
Heightened Def Con from 0.0030262 to 0.0030262
Heightened Def Con from 0.00303065 to 0.00303066
Heightened Def Con from 0.00303511 to 0.00303511
Heightened Def Con from 0.00303957 to 0.00303957
Heightened Def Con from 0.00305962 ++++++++++++++++++++++++++++++to 0.00305962
Heightened Def Con from 0.00306145 to 0.00306145
Heightened Def Con from 0.00306591 to 0.00306591
Heightened Def Con from 0.00307037 to 0.00307037
Heightened Def Con from 0.00307482 to 0.00307482
Heightened Def Con from 0.00307928 to 0.00307928
Heightened Def Con from 0.00308108 to 0.00308108
Heightened Def Con from 0.00308153 +++++++++++++++++++++++++++++to 0.00308153
Heightened Def Con from 0.00310121 to 0.00310121
Heightened Def Con from 0.00310567 to 0.00310567
Heightened Def Con from 0.00311012 to 0.00311012
Heightened Def Con from 0.00311458 to 0.00311458
Heightened Def Con from 0.00311904 to 0.00311904
Heightened Def Con from 0.00312127 +++++++++++++++++++++++++++++to 0.00312127
Heightened Def Con from 0.00314095 to 0.00314095
Heightened Def Con from 0.00314541 to 0.00314541
Heightened Def Con from 0.00314986 to 0.00314986
Heightened Def Con from 0.00315432 to 0.00315432
Heightened Def Con from 0.00315878 to 0.00315878
Heightened Def Con from 0.00317969 to 0.00317969
Heightened Def Con from 0.00317969 ++++++++++++++++++++++++++++to 0.00317969
Heightened Def Con from 0.00318016 ++++++++++++++++++++++++++++++to 0.00318016
Heightened Def Con from 0.00318503 to 0.00318503
Heightened Def Con from 0.00318949 to 0.00318949
Heightened Def Con from 0.00319395 to 0.00319395
Heightened Def Con from 0.00319841 to 0.00319841
Heightened Def Con from 0.00322464 to 0.00322464
Heightened Def Con from 0.0032291 to 0.0032291
Heightened Def Con from 0.00323356 to 0.00323356
Heightened Def Con from 0.00323802 to 0.00323802
Heightened Def Con from 0.00324066 to 0.00324066
Heightened Def Con from 0.00324066 ++++++++++++++++++++++++++++to 0.00324066
Heightened Def Con from 0.00324112 +++++++++++++++++++++++++++++to 0.00324112
Heightened Def Con from 0.00326427 to 0.00326427
Heightened Def Con from 0.00326873 to 0.00326873
Heightened Def Con from 0.00327319 to 0.00327319
Heightened Def Con from 0.00327764 to 0.00327764
Heightened Def Con from 0.00328119 ++++++++++++++++++++++++++++++to 0.00328119
Heightened Def Con from 0.00328861 +++++++++++++++++++++++++++++to 0.00328862
Heightened Def Con from 0.00330394 to 0.00330394
Heightened Def Con from 0.0033084 to 0.0033084
Heightened Def Con from 0.00331286 to 0.00331286
Heightened Def Con from 0.00331732 to 0.00331732
Heightened Def Con from 0.00334354 to 0.00334354
Heightened Def Con from 0.003348 to 0.003348
Heightened Def Con from 0.00335246 to 0.00335246
Heightened Def Con from 0.00335691 to 0.00335691
Heightened Def Con from 0.00336088 ++++++++++++++++++++++++++++++to 0.00336088
Heightened Def Con from 0.00338315 to 0.00338315
Heightened Def Con from 0.0033876 to 0.0033876
Heightened Def Con from 0.00339206 to 0.00339206
Heightened Def Con from 0.00339652 to 0.00339652
Heightened Def Con from 0.00340047 +++++++++++++++++++++++++++to 0.00340047
Heightened Def Con from 0.00340137 +++++++++++++++++++++++++++++to 0.00340138
Heightened Def Con from 0.00341966 +++++++++++++++++++++++to 0.00341966
Heightened Def Con from 0.00342056 +++++++++++++++++++++++++++++to 0.00342056
Heightened Def Con from 0.00342283 to 0.00342283
Heightened Def Con from 0.00342728 to 0.00342728
Heightened Def Con from 0.00343174 to 0.00343174
Heightened Def Con from 0.0034362 to 0.0034362
Heightened Def Con from 0.00344062 to 0.00344063
Heightened Def Con from 0.00344108 +++++++++++++++++++++++++++++to 0.00344108
Heightened Def Con from 0.00346248 to 0.00346248
Heightened Def Con from 0.00346694 to 0.00346694
Heightened Def Con from 0.0034714 to 0.0034714
Heightened Def Con from 0.00347586 to 0.00347586
Heightened Def Con from 0.00350218 to 0.00350218
Heightened Def Con from 0.00350663 to 0.00350663
Heightened Def Con from 0.00351109 to 0.00351109
Heightened Def Con from 0.00351555 to 0.00351555
Heightened Def Con from 0.00352001 to 0.00352001
Heightened Def Con from 0.00354007 to 0.00354007
Heightened Def Con from 0.00354007 ++++++++++++++++++++++++++++++to 0.00354007
Heightened Def Con from 0.0035419 to 0.0035419
Heightened Def Con from 0.00354635 to 0.00354635
Heightened Def Con from 0.00355081 to 0.00355081
Heightened Def Con from 0.00355527 to 0.00355527
Heightened Def Con from 0.00355973 to 0.00355973
Heightened Def Con from 0.00358158 to 0.00358158
Heightened Def Con from 0.00358603 to 0.00358603
Heightened Def Con from 0.00359049 to 0.00359049
Heightened Def Con from 0.00359495 to 0.00359495
Heightened Def Con from 0.00359941 to 0.00359941
Heightened Def Con from 0.00360122 ++++++++++++++++++++++++++++++to 0.00360122
Heightened Def Con from 0.00360167 to 0.00360167
Heightened Def Con from 0.00360257 +++++++++++++++++++++++++++++to 0.00360258
Heightened Def Con from 0.00361999 to 0.00361999
Heightened Def Con from 0.00362091 ++++++++++++++++++++++++++++++++to 0.00362091
Heightened Def Con from 0.00362578 to 0.00362578
Heightened Def Con from 0.00363023 to 0.00363023
Heightened Def Con from 0.00363469 to 0.00363469
Heightened Def Con from 0.00363915 to 0.00363915
Heightened Def Con from 0.00364095 to 0.00364095
Heightened Def Con from 0.0036414 +++++++++++++++++++++++++++++to 0.0036414
Heightened Def Con from 0.00366108 to 0.00366108
Heightened Def Con from 0.00366554 to 0.00366554
Heightened Def Con from 0.00367 to 0.00367
Heightened Def Con from 0.00367446 to 0.00367446
Heightened Def Con from 0.00367892 to 0.00367892
Heightened Def Con from 0.00369982 to 0.00369982
Heightened Def Con from 0.00369982 ++++++++++++++++++++++++++++++to 0.00369982
Heightened Def Con from 0.00370078 to 0.00370078
Heightened Def Con from 0.00370524 to 0.00370524
Heightened Def Con from 0.0037097 to 0.0037097
Heightened Def Con from 0.00371416 to 0.00371416
Heightened Def Con from 0.00371862 to 0.00371862
Heightened Def Con from 0.00374486 to 0.00374486
Heightened Def Con from 0.00374932 to 0.00374932
Heightened Def Con from 0.00375377 to 0.00375378
Heightened Def Con from 0.00375823 to 0.00375823
Heightened Def Con from 0.00376045 to 0.00376045
Heightened Def Con from 0.00376045 ++++++++++++++++++++++++++++++to 0.00376045
Heightened Def Con from 0.00376091 ++++++++++++++++++++++++++++++to 0.00376091
Heightened Def Con from 0.00377964 +++++++++++++++++++++++++++++to 0.00377964
Heightened Def Con from 0.0037801 ++++++++++++++++++++++++++++++to 0.0037801
Heightened Def Con from 0.00378056 +++++++++++++++++++++++++++++to 0.00378056
Heightened Def Con from 0.00378456 to 0.00378456
Heightened Def Con from 0.00378902 to 0.00378902
Heightened Def Con from 0.00379348 to 0.00379348
Heightened Def Con from 0.00379794 to 0.00379794
Heightened Def Con from 0.00380059 ++++++++++++++++++++++++++++++++to 0.0038006
Heightened Def Con from 0.00382417 to 0.00382417
Heightened Def Con from 0.00382863 to 0.00382863
Heightened Def Con from 0.00383309 to 0.00383309
Heightened Def Con from 0.00383754 to 0.00383754
Heightened Def Con from 0.00386375 to 0.00386375
Heightened Def Con from 0.00386821 to 0.00386821
Heightened Def Con from 0.00387267 to 0.00387267
Heightened Def Con from 0.00387713 to 0.00387713
Heightened Def Con from 0.00388064 to 0.00388064
Heightened Def Con from 0.00389981 ++++++++++++++++++++++++++++++to 0.00389981
Heightened Def Con from 0.00390026 +++++++++++++++++++++++++to 0.00390026
Heightened Def Con from 0.0039034 to 0.0039034
Heightened Def Con from 0.00390736 +++++++++++++++++++++++++++++to 0.00390736
Heightened Def Con from 0.00391172 +++++++++++++++++++++++++++++to 0.00391172
Heightened Def Con from 0.00391609 +++++++++++++++++++++++++++++to 0.00391609
Heightened Def Con from 0.00394003 ++++++++++++++++++++++++++++to 0.00394003
Heightened Def Con from 0.00394048 +++++++++++++++++++++++++++++to 0.00394048
Heightened Def Con from 0.00394224 +++++++++++++++++++++++++++++to 0.00394224
Heightened Def Con from 0.00394661 +++++++++++++++++++++++++++++to 0.00394661
Heightened Def Con from 0.00395097 +++++++++++++++++++++++++++++to 0.00395097
Heightened Def Con from 0.00395534 +++++++++++++++++++++++++++++to 0.00395534
Heightened Def Con from 0.0039597 +++++++++++++++++++++++++++++to 0.0039597
Heightened Def Con from 0.00398149 +++++++++++++++++++++++++++++to 0.00398149
Heightened Def Con from 0.00398586 +++++++++++++++++++++++++++++to 0.00398586
Heightened Def Con from 0.00399022 +++++++++++++++++++++++++++++to 0.00399022
Heightened Def Con from 0.00399459 +++++++++++++++++++++++++++++to 0.00399459
Heightened Def Con from 0.00399895 +++++++++++++++++++++++++++++to 0.00399895
Heightened Def Con from 0.00400071 to 0.00400071
Heightened Def Con from 0.00400071 +++++++++++++++++++++++++++++to 0.00400071
Heightened Def Con from 0.00401987 to 0.00401987
Heightened Def Con from 0.00401987 ++++++++++++++++++++++++++++to 0.00401987
Heightened Def Con from 0.00402077 ++++++++++++++++++++++++++++to 0.00402077
Heightened Def Con from 0.00402167 +++++++++++++++++++++++++++++to 0.00402167
Heightened Def Con from 0.00402516 +++++++++++++++++++++++++++++to 0.00402517
Heightened Def Con from 0.00402953 +++++++++++++++++++++++++++++to 0.00402953
Heightened Def Con from 0.00403389 +++++++++++++++++++++++++++++to 0.00403389
Heightened Def Con from 0.00403826 +++++++++++++++++++++++++++++to 0.00403826
Heightened Def Con from 0.00404044 ++++++++++++++++++++++++++++to 0.00404044
Heightened Def Con from 0.0040409 +++++++++++++++++++++++++++++to 0.0040409
Heightened Def Con from 0.0040644 +++++++++++++++++++++++++++++to 0.00406441
Heightened Def Con from 0.00406877 +++++++++++++++++++++++++++++to 0.00406877
Heightened Def Con from 0.00407313 +++++++++++++++++++++++++++++to 0.00407313
Heightened Def Con from 0.0040775 +++++++++++++++++++++++++++++to 0.0040775
Heightened Def Con from 0.00408055 +++++++++++++++++++++++++++++to 0.00408055
Heightened Def Con from 0.00410015 +++++++++++++++++++++++++++++to 0.00410015
Heightened Def Con from 0.00410365 +++++++++++++++++++++++++++++to 0.00410365
Heightened Def Con from 0.00410801 +++++++++++++++++++++++++++++to 0.00410802
Heightened Def Con from 0.00411238 +++++++++++++++++++++++++++++to 0.00411238
Heightened Def Con from 0.00411674 +++++++++++++++++++++++++++++to 0.00411674
Heightened Def Con from 0.00414026 +++++++++++++++++++++++++++++to 0.00414026
Heightened Def Con from 0.00414289 +++++++++++++++++++++++++++++to 0.00414289
Heightened Def Con from 0.00414725 +++++++++++++++++++++++++++++to 0.00414725
Heightened Def Con from 0.00415161 +++++++++++++++++++++++++++++to 0.00415162
Heightened Def Con from 0.00415598 +++++++++++++++++++++++++++++to 0.00415598
Heightened Def Con from 0.00416034 +++++++++++++++++++++++++++to 0.00416034
Heightened Def Con from 0.00416081 +++++++++++++++++++++++++++++++to 0.00416081
Heightened Def Con from 0.00416126 +++++++++++++++++++++++++++++to 0.00416126
Heightened Def Con from 0.00417999 ++++++++++++++++++++++++++++++to 0.00417999
Heightened Def Con from 0.00418045 +++++++++++++++++++++++++++++to 0.00418045
Heightened Def Con from 0.00418221 +++++++++++++++++++++++++++++to 0.00418221
Heightened Def Con from 0.00418657 +++++++++++++++++++++++++++++to 0.00418657
Heightened Def Con from 0.00419093 +++++++++++++++++++++++++++++to 0.00419094
Heightened Def Con from 0.0041953 +++++++++++++++++++++++++++++to 0.0041953
Heightened Def Con from 0.00419966 +++++++++++++++++++++++++++++to 0.00419967
Heightened Def Con from 0.00420055 to 0.00420055
Heightened Def Con from 0.00420145 +++++++++++++++++++++++++++++to 0.00420145
Heightened Def Con from 0.00422149 +++++++++++++++++++++++++++++to 0.00422149
Heightened Def Con from 0.00422586 +++++++++++++++++++++++++++++to 0.00422586
Heightened Def Con from 0.00423022 +++++++++++++++++++++++++++++to 0.00423022
Heightened Def Con from 0.00423459 +++++++++++++++++++++++++++++to 0.00423459
Heightened Def Con from 0.00423895 +++++++++++++++++++++++++++++to 0.00423895
Heightened Def Con from 0.00426032 to 0.00426032
Heightened Def Con from 0.00426032 +++++++++++++++++++++++++++++to 0.00426032
Heightened Def Con from 0.00426078 ++++++++++++++++++++++++++++++to 0.00426078
Heightened Def Con from 0.00426125 to 0.00426125
Heightened Def Con from 0.00426125 ++++++++++++++++++++++++++++++to 0.00426125
Heightened Def Con from 0.0042617 +++++++++++++++++++++++++++++to 0.00426171
Heightened Def Con from 0.0042652 +++++++++++++++++++++++++++++to 0.0042652
Heightened Def Con from 0.00426957 +++++++++++++++++++++++++++++to 0.00426957
Heightened Def Con from 0.00427393 +++++++++++++++++++++++++++++to 0.00427393
Heightened Def Con from 0.0042783 +++++++++++++++++++++++++++++to 0.0042783
Heightened Def Con from 0.00428093 +++++++++++++++++++++++++++++to 0.00428093
Heightened Def Con from 0.00430009 to 0.00430009
Heightened Def Con from 0.00430009 +++++++++++++++++++++++++++++to 0.00430009
Heightened Def Con from 0.00430445 +++++++++++++++++++++++++++++to 0.00430445
Heightened Def Con from 0.00430882 +++++++++++++++++++++++++++++to 0.00430882
Heightened Def Con from 0.00431318 +++++++++++++++++++++++++++++to 0.00431318
Heightened Def Con from 0.00431755 +++++++++++++++++++++++++++++to 0.00431755
Heightened Def Con from 0.00432061 ++++++++++++++++++++++++++++++to 0.00432061
Heightened Def Con from 0.00432107 +++++++++++++++++++++++++++++to 0.00432107
Heightened Def Con from 0.00433717 to 0.00433718
Heightened Def Con from 0.00433763 +++++++++++++++++++++++++++++to 0.00433763
Heightened Def Con from 0.00434027 +++++++++++++++++++++++++++++to 0.00434027
Heightened Def Con from 0.00434377 +++++++++++++++++++++++++++++to 0.00434377
Heightened Def Con from 0.00434813 +++++++++++++++++++++++++++++to 0.00434813
Heightened Def Con from 0.0043525 +++++++++++++++++++++++++++++to 0.0043525
Heightened Def Con from 0.00435686 +++++++++++++++++++++++++++++to 0.00435686
Heightened Def Con from 0.00436036 ++++++++++++++++++++++++++++++to 0.00436036
Heightened Def Con from 0.00436082 to 0.00436082
Heightened Def Con from 0.00436082 +++++++++++++++++++++++++++++to 0.00436082
Heightened Def Con from 0.00437781 +++++++++++++++++++++++++++++to 0.00437781
Heightened Def Con from 0.00438001 ++++++++++++++++++++++++++++++to 0.00438001
Heightened Def Con from 0.00438047 +++++++++++++++++++++++++++++to 0.00438047
Heightened Def Con from 0.0043831 +++++++++++++++++++++++++++++to 0.0043831
Heightened Def Con from 0.00438747 +++++++++++++++++++++++++++++to 0.00438747
Heightened Def Con from 0.00439183 +++++++++++++++++++++++++++++to 0.00439183
Heightened Def Con from 0.00439619 +++++++++++++++++++++++++++++to 0.0043962
Heightened Def Con from 0.00442235 +++++++++++++++++++++++++++++to 0.00442236
Heightened Def Con from 0.00442672 +++++++++++++++++++++++++++++to 0.00442672
Heightened Def Con from 0.00443108 +++++++++++++++++++++++++++++to 0.00443108
Heightened Def Con from 0.00443545 +++++++++++++++++++++++++++++to 0.00443545
Heightened Def Con from 0.00443981 +++++++++++++++++++++++++++++to 0.00443981
Heightened Def Con from 0.0044407 +++++++++++++++++++++++++++++to 0.0044407
Heightened Def Con from 0.00446159 +++++++++++++++++++++++++++++to 0.0044616
Heightened Def Con from 0.00446596 +++++++++++++++++++++++++++++to 0.00446596
Heightened Def Con from 0.00447032 +++++++++++++++++++++++++++++to 0.00447033
Heightened Def Con from 0.00447469 +++++++++++++++++++++++++++++to 0.00447469
Heightened Def Con from 0.00447905 +++++++++++++++++++++++++++++to 0.00447905
Heightened Def Con from 0.00448038 to 0.00448038
Heightened Def Con from 0.00448038 +++++++++++++++++++++++++++++++to 0.00448038
Heightened Def Con from 0.00448083 ++++++++++++++++++++++++++++++to 0.00448083
Heightened Def Con from 0.0044813 +++++++++++++++++++++++++++++++to 0.0044813
Heightened Def Con from 0.00448175 +++++++++++++++++++++++++++++to 0.00448175
Heightened Def Con from 0.00450005 to 0.00450005
Heightened Def Con from 0.00450005 ++++++++++++++++++++++++++++++to 0.00450005
Heightened Def Con from 0.00450094 ++++++++++++++++++++++++++++++to 0.00450094
Heightened Def Con from 0.0045014 +++++++++++++++++++++++++++++to 0.0045014
Heightened Def Con from 0.00450186 +++++++++++++++++++++++++++to 0.00450186
Heightened Def Con from 0.00450276 +++++++++++++++++++++++++++++to 0.00450276
Heightened Def Con from 0.00450539 +++++++++++++++++++++++++++++to 0.00450539
Heightened Def Con from 0.00450975 +++++++++++++++++++++++++++++to 0.00450975
Heightened Def Con from 0.00451412 +++++++++++++++++++++++++++++to 0.00451412
Heightened Def Con from 0.00451848 +++++++++++++++++++++++++++++to 0.00451848
Heightened Def Con from 0.0045207 +++++++++++++++++++++++++++++to 0.0045207
Heightened Def Con from 0.00452115 +++++++++++++++++++++++++++to 0.00452115
Heightened Def Con from 0.00452205 +++++++++++++++++++++++++++++to 0.00452205
Heightened Def Con from 0.00453991 ++++++++++++++++++++++++++++++to 0.00453991
Heightened Def Con from 0.00454037 to 0.00454037
Heightened Def Con from 0.00454127 +++++++++++++++++++++++++++++to 0.00454127
Heightened Def Con from 0.00454477 +++++++++++++++++++++++++++++to 0.00454477
Heightened Def Con from 0.00454913 +++++++++++++++++++++++++++++to 0.00454913
Heightened Def Con from 0.00455349 +++++++++++++++++++++++++++++to 0.0045535
Heightened Def Con from 0.00455786 +++++++++++++++++++++++++++++to 0.00455786
Heightened Def Con from 0.00458005 to 0.00458005
Heightened Def Con from 0.00458051 +++++++++++++++++++++++++++++to 0.00458051
Heightened Def Con from 0.00458401 +++++++++++++++++++++++++++++to 0.00458401
Heightened Def Con from 0.00458837 +++++++++++++++++++++++++++++to 0.00458837
Heightened Def Con from 0.00459274 +++++++++++++++++++++++++++++to 0.00459274
Heightened Def Con from 0.0045971 +++++++++++++++++++++++++++++to 0.0045971
Heightened Def Con from 0.00460061 +++++++++++++++++++++++++++++++to 0.00460061
Heightened Def Con from 0.00460107 +++++++++++++++++++++++++++++++to 0.00460107
Heightened Def Con from 0.00462329 +++++++++++++++++++++++++++++to 0.00462329
Heightened Def Con from 0.00462765 +++++++++++++++++++++++++++++to 0.00462766
Heightened Def Con from 0.00463202 +++++++++++++++++++++++++++++to 0.00463202
Heightened Def Con from 0.00463638 +++++++++++++++++++++++++++++to 0.00463639
Heightened Def Con from 0.00466249 +++++++++++++++++++++++++++++to 0.00466249
Heightened Def Con from 0.00466686 +++++++++++++++++++++++++++++to 0.00466686
Heightened Def Con from 0.00467122 +++++++++++++++++++++++++++++to 0.00467122
Heightened Def Con from 0.00467559 +++++++++++++++++++++++++++++to 0.00467559
Heightened Def Con from 0.00467995 +++++++++++++++++++++++++++++to 0.00467995
Heightened Def Con from 0.00469997 to 0.00469997
Heightened Def Con from 0.00470087 +++++++++++++++++++++++++++++to 0.00470087
Heightened Def Con from 0.00470176 ++++++++++++++++++++++++++++++to 0.00470176
Heightened Def Con from 0.00470222 +++++++++++++++++++++++++++++to 0.00470223
Heightened Def Con from 0.00470268 +++++++++++++++++++++++++++to 0.00470268
Heightened Def Con from 0.00470358 +++++++++++++++++++++++++++++to 0.00470358
Heightened Def Con from 0.00470621 +++++++++++++++++++++++++++++to 0.00470621
Heightened Def Con from 0.00471057 +++++++++++++++++++++++++++++to 0.00471058
Heightened Def Con from 0.00471494 +++++++++++++++++++++++++++++to 0.00471494
Heightened Def Con from 0.0047193 +++++++++++++++++++++++++++++to 0.0047193
Heightened Def Con from 0.00472065 to 0.00472065
Heightened Def Con from 0.00472065 +++++++++++++++++++++++++++++++to 0.00472065
Heightened Def Con from 0.00472111 +++++++++++++++++++++++++++++to 0.00472111
Heightened Def Con from 0.00474114 +++++++++++++++++++++++++++++to 0.00474114
Heightened Def Con from 0.0047455 +++++++++++++++++++++++++++++to 0.0047455
Heightened Def Con from 0.00474987 +++++++++++++++++++++++++++++to 0.00474987
Heightened Def Con from 0.00475423 +++++++++++++++++++++++++++++to 0.00475423
Heightened Def Con from 0.00475859 +++++++++++++++++++++++++++++to 0.0047586
Heightened Def Con from 0.00477994 to 0.00477994
Heightened Def Con from 0.00477994 ++++++++++++++++++++++++++++++to 0.00477994
Heightened Def Con from 0.0047804 +++++++++++++++++++++++++++++to 0.0047804
Heightened Def Con from 0.00478476 +++++++++++++++++++++++++++++to 0.00478476
Heightened Def Con from 0.00478912 +++++++++++++++++++++++++++++to 0.00478913
Heightened Def Con from 0.00479349 +++++++++++++++++++++++++++++to 0.00479349
Heightened Def Con from 0.00479785 +++++++++++++++++++++++++++++to 0.00479786
Heightened Def Con from 0.00482006 to 0.00482006
Heightened Def Con from 0.00482051 +++++++++++++++++++++++++++++to 0.00482052
Heightened Def Con from 0.00482402 ++++++++++++++++++++++++++++++to 0.00482402
Heightened Def Con from 0.00482448 +++++++++++++++++++++++++++++to 0.00482448
Heightened Def Con from 0.00482494 +++++++++++++++++++++++++++to 0.00482494
Heightened Def Con from 0.00482584 +++++++++++++++++++++++++++++to 0.00482584
Heightened Def Con from 0.00482847 +++++++++++++++++++++++++++++to 0.00482847
Heightened Def Con from 0.00483283 +++++++++++++++++++++++++++++to 0.00483283
Heightened Def Con from 0.0048372 +++++++++++++++++++++++++++++to 0.0048372
Heightened Def Con from 0.00485984 ++++++++++++++++++++++++++++++to 0.00485984
Heightened Def Con from 0.00486029 to 0.00486029
Heightened Def Con from 0.00486074 +++++++++++++++++++++++++++++to 0.00486075
Heightened Def Con from 0.00486337 +++++++++++++++++++++++++++++to 0.00486337
Heightened Def Con from 0.00486774 +++++++++++++++++++++++++++++to 0.00486774
Heightened Def Con from 0.0048721 +++++++++++++++++++++++++++++to 0.0048721
Heightened Def Con from 0.00487647 +++++++++++++++++++++++++++++to 0.00487647
Heightened Def Con from 0.00488039 ++++++++++++++++++++++++++++to 0.00488039
Heightened Def Con from 0.00489998 to 0.00489998
Heightened Def Con from 0.00489998 ++++++++++++++++++++++++++++to 0.00489998
Heightened Def Con from 0.00490088 +++++++++++++++++++++++++++++to 0.00490089
Heightened Def Con from 0.00490264 +++++++++++++++++++++++++++++to 0.00490264
Heightened Def Con from 0.00490701 +++++++++++++++++++++++++++++to 0.00490701
Heightened Def Con from 0.00491137 +++++++++++++++++++++++++++++to 0.00491137
Heightened Def Con from 0.00491574 +++++++++++++++++++++++++++++to 0.00491574
Heightened Def Con from 0.0049201 +++++++++++++++++++++++++++++to 0.0049201
Heightened Def Con from 0.00492055 to 0.00492056
Heightened Def Con from 0.00492101 +++++++++++++++++++++++++++++to 0.00492101
Heightened Def Con from 0.00494191 +++++++++++++++++++++++++++++to 0.00494191
Heightened Def Con from 0.00494627 +++++++++++++++++++++++++++++to 0.00494627
Heightened Def Con from 0.00495064 +++++++++++++++++++++++++++++to 0.00495064
Heightened Def Con from 0.004955 +++++++++++++++++++++++++++++to 0.004955
Heightened Def Con from 0.00495937 +++++++++++++++++++++++++++++to 0.00495937
Heightened Def Con from 0.00498115 +++++++++++++++++++++++++++++to 0.00498115
Heightened Def Con from 0.00498551 +++++++++++++++++++++++++++++to 0.00498551
Heightened Def Con from 0.00498988 +++++++++++++++++++++++++++++to 0.00498988
Heightened Def Con from 0.00499424 +++++++++++++++++++++++++++++to 0.00499424
Heightened Def Con from 0.00499861 +++++++++++++++++++++++++++++to 0.00499861

Date: Sat Aug 29 22:02:55 2020
Total elapsed time: 196.301 seconds.

tnom = 27
temp = 27
method = modified trap
totiter = 5463962
traniter = 5463940
tranpoints = 1381570
accept = 947909
rejected = 445655
matrix size = 123
fillins = 2
solver = Normal
Thread vector: 29.0/14.7[3] 8.3/6.8[3] 7.0/5.7[2] 0.6/2.5[1]  2592/500
Matrix Compiler1: 3.45 KB object code size  3.1/2.3/[0.7]
Matrix Compiler2: 6.70 KB object code size  2.5/3.6/[1.0]

