Circuit: * Z:\mnt\Documentos\Facultad\Electronica Aplicada III\Practicos\TP3\PLL\PLL.asc

WARNING: Less than two connections to node N006.  This node is used by D:U1:3.
WARNING: Less than two connections to node NC_01.  This node is used by R:U2:OUT0:OUT.
WARNING: Less than two connections to node NC_02.  This node is used by R:U2:OUT1:OUT.
WARNING: Less than two connections to node NC_03.  This node is used by R:U2:OUT2:OUT.
WARNING: Less than two connections to node NC_04.  This node is used by R:U2:OUT3:OUT.
WARNING: Less than two connections to node NC_05.  This node is used by R:U2:OUT4:OUT.
WARNING: Less than two connections to node NC_06.  This node is used by R:U2:OUT5:OUT.
WARNING: Less than two connections to node NC_07.  This node is used by R:U2:OUT6:OUT.
WARNING: Less than two connections to node NC_08.  This node is used by R:U2:OUT7:OUT.
WARNING: Less than two connections to node NC_09.  This node is used by R:U2:OUT8:OUT.
WARNING: Less than two connections to node NC_10.  This node is used by R:U2:OUT9:OUT.
Direct Newton iteration for .op point succeeded.
Ignoring empty pin current: Ix(u2:vdd)
Ignoring empty pin current: Ix(u2:vdd)

Date: Wed Aug 19 23:14:27 2020
Total elapsed time: 82.791 seconds.

tnom = 27
temp = 27
method = modified trap
totiter = 2406601
traniter = 2406579
tranpoints = 743734
accept = 557755
rejected = 185979
matrix size = 123
fillins = 0
solver = Normal
Thread vector: 20.2/11.0[4] 8.9/6.6[4] 3.2/4.5[1] 0.5/3.1[1]  2592/500
Matrix Compiler1: 3.62 KB object code size  3.0/2.3/[0.8]
Matrix Compiler2: 6.32 KB object code size  2.1/4.2/[0.8]

