Circuit: * Z:\mnt\Documentos\Facultad\Electronica Aplicada III\Practicos\repo\EAIII\TP 3\simulaciones\PLL.asc

WARNING: Less than two connections to node N006.  This node is used by D:U1:3.
WARNING: Less than two connections to node NC_01.  This node is used by R:U2:OUT0:OUT.
WARNING: Less than two connections to node NC_02.  This node is used by R:U2:OUT1:OUT.
WARNING: Less than two connections to node NC_03.  This node is used by R:U2:OUT2:OUT.
WARNING: Less than two connections to node NC_04.  This node is used by R:U2:OUT3:OUT.
WARNING: Less than two connections to node NC_05.  This node is used by R:U2:OUT4:OUT.
WARNING: Less than two connections to node NC_06.  This node is used by R:U2:OUT5:OUT.
WARNING: Less than two connections to node NC_07.  This node is used by R:U2:OUT6:OUT.
WARNING: Less than two connections to node NC_08.  This node is used by R:U2:OUT7:OUT.
WARNING: Less than two connections to node NC_09.  This node is used by R:U2:OUT8:OUT.
WARNING: Less than two connections to node NC_10.  This node is used by R:U2:OUT9:OUT.
Direct Newton iteration for .op point succeeded.
Ignoring empty pin current: Ix(u2:vdd)
Ignoring empty pin current: Ix(u2:vdd)

Date: Sat Aug 29 16:00:35 2020
Total elapsed time: 75.907 seconds.

tnom = 27
temp = 27
method = modified trap
totiter = 2397974
traniter = 2397952
tranpoints = 741953
accept = 556469
rejected = 185484
matrix size = 123
fillins = 0
solver = Normal
Thread vector: 20.6/11.4[4] 9.0/5.6[4] 4.2/4.6[1] 0.5/2.9[1]  2592/500
Matrix Compiler1: 3.62 KB object code size  2.8/2.3/[0.9]
Matrix Compiler2: 6.32 KB object code size  2.1/3.7/[0.8]

