Circuit: * Z:\mnt\Documentos\Facultad\Electronica Aplicada III\Practicos\repo\EAIII\TP 3\simulaciones\PLL.asc

WARNING: Less than two connections to node N006.  This node is used by D:U1:3.
WARNING: Less than two connections to node NC_01.  This node is used by R:U2:OUT0:OUT.
WARNING: Less than two connections to node NC_02.  This node is used by R:U2:OUT1:OUT.
WARNING: Less than two connections to node NC_03.  This node is used by R:U2:OUT2:OUT.
WARNING: Less than two connections to node NC_04.  This node is used by R:U2:OUT3:OUT.
WARNING: Less than two connections to node NC_05.  This node is used by R:U2:OUT4:OUT.
WARNING: Less than two connections to node NC_06.  This node is used by R:U2:OUT5:OUT.
WARNING: Less than two connections to node NC_07.  This node is used by R:U2:OUT6:OUT.
WARNING: Less than two connections to node NC_08.  This node is used by R:U2:OUT7:OUT.
WARNING: Less than two connections to node NC_09.  This node is used by R:U2:OUT8:OUT.
WARNING: Less than two connections to node NC_10.  This node is used by R:U2:OUT9:OUT.
Direct Newton iteration for .op point succeeded.
Ignoring empty pin current: Ix(u2:vdd)
Ignoring empty pin current: Ix(u2:vdd)
Heightened Def Con from 1.46556e-005 to 1.46567e-005
Heightened Def Con from 1.92866e-005 +++++++++++++++++++++++++++to 1.92877e-005
Heightened Def Con from 2.0199e-005 ++++++++++++++++++++++++++++to 2.02001e-005
Heightened Def Con from 7.12102e-005 ++++++++++++++++++++++++++++++to 7.12112e-005
Heightened Def Con from 7.16664e-005 ++++++++++++++++++++++++++++to 7.16675e-005
Heightened Def Con from 7.21165e-005 to 7.21176e-005
Heightened Def Con from 8.9563e-005 to 8.95641e-005
Heightened Def Con from 9.04565e-005 to 9.04576e-005
Heightened Def Con from 9.135e-005 to 9.13511e-005
Heightened Def Con from 9.22435e-005 to 9.22447e-005
Heightened Def Con from 9.3137e-005 to 9.31382e-005
Heightened Def Con from 9.40305e-005 +++++++++++++++++++++++to 9.40317e-005
Heightened Def Con from 9.49137e-005 +++++++++++++++++++++++++++to 9.49148e-005
Heightened Def Con from 9.6675e-005 +++++++++++++++++++++++++++to 9.66761e-005
Heightened Def Con from 9.7981e-005 +++++++++++++++++++++++++++to 9.79821e-005
Heightened Def Con from 9.8429e-005 to 9.84301e-005
Heightened Def Con from 9.93225e-005 ++++++++++++++++++++++++to 9.93236e-005
Heightened Def Con from 0.000100206 +++++++++++++++++++++++++++to 0.000100207
Heightened Def Con from 0.000101512 +++++++++++++++++++++++++++to 0.000101513
Heightened Def Con from 0.000102855 to 0.000102856
Heightened Def Con from 0.000103748 to 0.000103749
Heightened Def Con from 0.000104642 to 0.000104643
Heightened Def Con from 0.000105535 to 0.000105536
Heightened Def Con from 0.000106429 to 0.00010643
Heightened Def Con from 0.000107322 to 0.000107323
Heightened Def Con from 0.000108216 to 0.000108217
Heightened Def Con from 0.000109109 to 0.00010911
Heightened Def Con from 0.000110003 to 0.000110004
Heightened Def Con from 0.000110896 to 0.000110897
Heightened Def Con from 0.00011179 to 0.000111791
Heightened Def Con from 0.000112683 to 0.000112684
Heightened Def Con from 0.000113577 to 0.000113578
Heightened Def Con from 0.00011447 to 0.000114471
Heightened Def Con from 0.000115364 to 0.000115365
Heightened Def Con from 0.000116257 to 0.000116258
Heightened Def Con from 0.000117151 to 0.000117152
Heightened Def Con from 0.000118044 to 0.000118045
Heightened Def Con from 0.000118938 to 0.000118939
Heightened Def Con from 0.000119831 to 0.000119832
Heightened Def Con from 0.000120725 to 0.000120726
Heightened Def Con from 0.000121618 to 0.000121619
Heightened Def Con from 0.000122512 to 0.000122513
Heightened Def Con from 0.000123405 to 0.000123406
Heightened Def Con from 0.000124299 to 0.0001243
Heightened Def Con from 0.000125192 to 0.000125193
Heightened Def Con from 0.000126086 to 0.000126087
Heightened Def Con from 0.000126979 to 0.00012698
Heightened Def Con from 0.000127873 to 0.000127874
Heightened Def Con from 0.000128766 to 0.000128768
Heightened Def Con from 0.000137723 +++++++++++++++++++++++++++++++to 0.000137725
Heightened Def Con from 0.000140405 to 0.000140407
Heightened Def Con from 0.000141299 to 0.0001413
Heightened Def Con from 0.000142192 to 0.000142194
Heightened Def Con from 0.000143086 to 0.000143087
Heightened Def Con from 0.00014398 to 0.000143981
Heightened Def Con from 0.000144873 to 0.000144874
Heightened Def Con from 0.000145767 +++++++++++++++++++++++++to 0.000145768
Heightened Def Con from 0.000146651 ++++++++++++++++++++++++++++to 0.000146652
Heightened Def Con from 0.000147535 ++++++++++++++++++++++++++++to 0.000147536
Heightened Def Con from 0.000148418 ++++++++++++++++++++++++++++++to 0.000148419
Heightened Def Con from 0.000148419 ++++++++++++++++++++++to 0.000148422
Heightened Def Con from 0.000148863 to 0.000148864
Heightened Def Con from 0.00014931 to 0.000149311
Heightened Def Con from 0.000150204 ++++++++++++++++++++++++++++to 0.000150205
Heightened Def Con from 0.000150654 ++++++++++++++++++++++++++++++to 0.000150655
Heightened Def Con from 0.000150655 ++++++++++++++++++++++to 0.000150658
Heightened Def Con from 0.000151103 ++++++++++++++++++++++++++++++to 0.000151104
Heightened Def Con from 0.000151104 ++++++++++++++++++++++to 0.000151107
Heightened Def Con from 0.000151547 to 0.000151548
Heightened Def Con from 0.000151995 ++++++++++++++++++++++++++to 0.000151996
Heightened Def Con from 0.000152439 to 0.00015244
Heightened Def Con from 0.000152886 +++++++++++++++++++++++++++to 0.000152888
Heightened Def Con from 0.00015333 to 0.000153332
Heightened Def Con from 0.000153778 ++++++++++++++++++++++++++++to 0.000153779
Heightened Def Con from 0.000154228 +++++++++++++++++++++++++++++to 0.000154229
Heightened Def Con from 0.000154678 +++++++++++++++++++++++++++++to 0.000154679
Heightened Def Con from 0.000155567 ++++++++++++++++++++++++++++++to 0.000155568
Heightened Def Con from 0.000155568 +++++++++++++++++++++++to 0.000155571
Heightened Def Con from 0.000156456 +++++++++++++++++++++++++++++to 0.000156457
Heightened Def Con from 0.000157344 +++++++++++++++++++++++++++++to 0.000157345
Heightened Def Con from 0.00015865 ++++++++++++++++++++++++++++++to 0.000158651
Heightened Def Con from 0.000158651 +++++++++++++++++++++++to 0.000158654
Heightened Def Con from 0.000159521 ++++++++++++++++++++++++++++++to 0.000159522
Heightened Def Con from 0.000159522 +++++++++++++++++++++++to 0.000159525
Heightened Def Con from 0.000160391 ++++++++++++++++++++++++++++++to 0.000160392
Heightened Def Con from 0.000160392 +++++++++++++++++++++++to 0.000160395
Heightened Def Con from 0.000161261 ++++++++++++++++++++++++++++++to 0.000161263
Heightened Def Con from 0.000161263 +++++++++++++++++++++++to 0.000161266
Heightened Def Con from 0.000162132 ++++++++++++++++++++++++++++++to 0.000162133
Heightened Def Con from 0.000162133 +++++++++++++++++++++++to 0.000162136
Heightened Def Con from 0.000162582 ++++++++++++++++++++++++++++++to 0.000162583
Heightened Def Con from 0.000162583 +++++++++++++++++++++++to 0.000162586
Heightened Def Con from 0.000163035 +++++++++++++++++++++++++++++++to 0.000163036
Heightened Def Con from 0.000163036 +++++++++++++++++++++++to 0.000163039
Heightened Def Con from 0.000163902 ++++++++++++++++++++++++++++++to 0.000163903
Heightened Def Con from 0.000163903 +++++++++++++++++++++++to 0.000163906
Heightened Def Con from 0.000164772 ++++++++++++++++++++++++++++++to 0.000164774
Heightened Def Con from 0.000164774 +++++++++++++++++++++++to 0.000164777
Heightened Def Con from 0.000165643 ++++++++++++++++++++++++++++++to 0.000165644
Heightened Def Con from 0.000165644 +++++++++++++++++++++++to 0.000165647
Heightened Def Con from 0.000166513 ++++++++++++++++++++++++++++++to 0.000166514
Heightened Def Con from 0.000166514 +++++++++++++++++++++++to 0.000166517
Heightened Def Con from 0.000167384 ++++++++++++++++++++++++++++++to 0.000167385
Heightened Def Con from 0.000167385 +++++++++++++++++++++++to 0.000167388
Heightened Def Con from 0.000168254 ++++++++++++++++++++++++++++++to 0.000168255
Heightened Def Con from 0.000168255 +++++++++++++++++++++++to 0.000168258
Heightened Def Con from 0.000169124 ++++++++++++++++++++++++++++++to 0.000169126
Heightened Def Con from 0.000169126 +++++++++++++++++++++++to 0.000169129
Heightened Def Con from 0.000169995 ++++++++++++++++++++++++++++++to 0.000169996
Heightened Def Con from 0.000169996 +++++++++++++++++++++++to 0.000169999
Heightened Def Con from 0.000170865 ++++++++++++++++++++++++++++++to 0.000170866
Heightened Def Con from 0.000170866 +++++++++++++++++++++++to 0.000170869
Heightened Def Con from 0.000171736 ++++++++++++++++++++++++++++++to 0.000171737
Heightened Def Con from 0.000171737 +++++++++++++++++++++++to 0.00017174
Heightened Def Con from 0.000172606 ++++++++++++++++++++++++++++++to 0.000172607
Heightened Def Con from 0.000172607 +++++++++++++++++++++++to 0.00017261
Heightened Def Con from 0.000173476 ++++++++++++++++++++++++++++++to 0.000173478
Heightened Def Con from 0.000173478 +++++++++++++++++++++++to 0.000173481
Heightened Def Con from 0.000174347 ++++++++++++++++++++++++++++++to 0.000174348
Heightened Def Con from 0.000174348 +++++++++++++++++++++++to 0.000174351
Heightened Def Con from 0.000175217 ++++++++++++++++++++++++++++++to 0.000175218
Heightened Def Con from 0.000175218 +++++++++++++++++++++++to 0.000175221
Heightened Def Con from 0.000176088 ++++++++++++++++++++++++++++++to 0.000176089
Heightened Def Con from 0.000176089 +++++++++++++++++++++++to 0.000176092
Heightened Def Con from 0.000176958 ++++++++++++++++++++++++++++++to 0.000176959
Heightened Def Con from 0.000176959 +++++++++++++++++++++++to 0.000176962
Heightened Def Con from 0.000177828 ++++++++++++++++++++++++++++++to 0.000177829
Heightened Def Con from 0.000177829 +++++++++++++++++++++++to 0.000177832
Heightened Def Con from 0.000178699 ++++++++++++++++++++++++++++++to 0.0001787
Heightened Def Con from 0.0001787 +++++++++++++++++++++++to 0.000178703
Heightened Def Con from 0.000179569 ++++++++++++++++++++++++++++++to 0.00017957
Heightened Def Con from 0.00017957 +++++++++++++++++++++++to 0.000179573
Heightened Def Con from 0.000180439 ++++++++++++++++++++++++++++++to 0.000180441
Heightened Def Con from 0.000180441 +++++++++++++++++++++++to 0.000180444
Heightened Def Con from 0.00018131 ++++++++++++++++++++++++++++++to 0.000181311
Heightened Def Con from 0.000181311 +++++++++++++++++++++++to 0.000181314
Heightened Def Con from 0.00018218 ++++++++++++++++++++++++++++++to 0.000182181
Heightened Def Con from 0.000182181 +++++++++++++++++++++++to 0.000182184
Heightened Def Con from 0.000183051 ++++++++++++++++++++++++++++++to 0.000183052
Heightened Def Con from 0.000183052 ++++++++++++++++++++++to 0.000183053
Heightened Def Con from 0.000183499 +++++++++++++++++++++++++++++to 0.0001835
Heightened Def Con from 0.000183948 +++++++++++++++++++++++++++++to 0.00018395
Heightened Def Con from 0.000184398 +++++++++++++++++++++++++++++to 0.000184399
Heightened Def Con from 0.000184841 to 0.000184842
Heightened Def Con from 0.000185288 ++++++++++++++++++++++++++++to 0.00018529
Heightened Def Con from 0.000185739 +++++++++++++++++++++++++++++to 0.00018574
Heightened Def Con from 0.000186188 +++++++++++++++++++++++++++++to 0.000186189
Heightened Def Con from 0.000186637 +++++++++++++++++++++++++++++to 0.000186638
Heightened Def Con from 0.000187086 +++++++++++++++++++++++++++++to 0.000187088
Heightened Def Con from 0.000187975 +++++++++++++++++++++++++++++to 0.000187976
Heightened Def Con from 0.000188435 ++++++++++++++++++++++++++++++to 0.000188436
Heightened Def Con from 0.000188436 ++++++++++++++++++++++to 0.000188439
Heightened Def Con from 0.000188883 to 0.000188884
Heightened Def Con from 0.000189327 to 0.000189329
Heightened Def Con from 0.000189775 +++++++++++++++++++++++++++to 0.000189776
Heightened Def Con from 0.000190219 to 0.00019022
Heightened Def Con from 0.000190667 +++++++++++++++++++++++++++to 0.000190668
Heightened Def Con from 0.000191111 to 0.000191112
Heightened Def Con from 0.000191558 +++++++++++++++++++++++++++to 0.000191559
Heightened Def Con from 0.000192002 to 0.000192003
Heightened Def Con from 0.00019245 +++++++++++++++++++++++++++to 0.000192451
Heightened Def Con from 0.000192894 to 0.000192895
Heightened Def Con from 0.000193341 +++++++++++++++++++++++++++to 0.000193342
Heightened Def Con from 0.000193785 to 0.000193786
Heightened Def Con from 0.000194233 +++++++++++++++++++++++++++to 0.000194234
Heightened Def Con from 0.000194677 to 0.000194678
Heightened Def Con from 0.000195124 ++++++++++++++++++++++++++to 0.000195126
Heightened Def Con from 0.000195569 to 0.00019557
Heightened Def Con from 0.000196016 ++++++++++++++++++++++++++to 0.000196017
Heightened Def Con from 0.00019646 to 0.000196461
Heightened Def Con from 0.000196908 ++++++++++++++++++++++++++to 0.000196909
Heightened Def Con from 0.000197352 to 0.000197353
Heightened Def Con from 0.0001978 +++++++++++++++++++++++++to 0.000197801
Heightened Def Con from 0.000198244 to 0.000198245
Heightened Def Con from 0.000198691 ++++++++++++++++++++++++to 0.000198692
Heightened Def Con from 0.000199136 to 0.000199137
Heightened Def Con from 0.000199583 +++++++++++++++++++++to 0.000199584
Heightened Def Con from 0.000200028 to 0.000200029
Heightened Def Con from 0.000200475 to 0.000200476
Heightened Def Con from 0.000201369 ++++++++++++++++++++++++++++to 0.00020137
Heightened Def Con from 0.000202253 +++++++++++++++++++++++++++++to 0.000202254
Heightened Def Con from 0.000203136 +++++++++++++++++++++++++++++to 0.000203137
Heightened Def Con from 0.000204896 ++++++++++++++++++++++++++++to 0.000204898
Heightened Def Con from 0.00020578 +++++++++++++++++++++++++++++to 0.000205782
Heightened Def Con from 0.000206229 ++++++++++++++++++++++++++to 0.00020623
Heightened Def Con from 0.000207119 to 0.00020712
Heightened Def Con from 0.000207567 ++++++++++++++++++++++++++to 0.000207568
Heightened Def Con from 0.000208011 to 0.000208012
Heightened Def Con from 0.000208458 ++++++++++++++++++++++++++++to 0.000208459
Heightened Def Con from 0.000208908 +++++++++++++++++++++++++++++to 0.00020891
Heightened Def Con from 0.000209358 +++++++++++++++++++++++++++++to 0.000209359
Heightened Def Con from 0.000209807 +++++++++++++++++++++++++++++to 0.000209808
Heightened Def Con from 0.000210256 +++++++++++++++++++++++++++++to 0.000210257
Heightened Def Con from 0.000210704 +++++++++++++++++++++++++++++to 0.000210706
Heightened Def Con from 0.000211154 ++++++++++++++++++++++++++++++to 0.000211155
Heightened Def Con from 0.000211155 +++++++++++++++++++++++to 0.000211158
Heightened Def Con from 0.000212043 ++++++++++++++++++++++++++++++to 0.000212044
Heightened Def Con from 0.000212044 +++++++++++++++++++++++to 0.000212047
Heightened Def Con from 0.000212483 to 0.000212484
Heightened Def Con from 0.000212931 +++++++++++++++++++++++++++++to 0.000212932
Heightened Def Con from 0.000214238 ++++++++++++++++++++++++++++++to 0.00021424
Heightened Def Con from 0.00021424 +++++++++++++++++++++++to 0.000214243
Heightened Def Con from 0.000215109 ++++++++++++++++++++++++++++++to 0.00021511
Heightened Def Con from 0.00021511 +++++++++++++++++++++++to 0.000215113
Heightened Def Con from 0.000215979 ++++++++++++++++++++++++++++++to 0.00021598
Heightened Def Con from 0.00021598 +++++++++++++++++++++++to 0.000215983
Heightened Def Con from 0.00021685 ++++++++++++++++++++++++++++++to 0.000216851
Heightened Def Con from 0.000216851 +++++++++++++++++++++++to 0.000216854
Heightened Def Con from 0.00021772 ++++++++++++++++++++++++++++++to 0.000217721
Heightened Def Con from 0.000217721 +++++++++++++++++++++++to 0.000217724
Heightened Def Con from 0.00021859 ++++++++++++++++++++++++++++++to 0.000218591
Heightened Def Con from 0.000218591 +++++++++++++++++++++++to 0.000218594
Heightened Def Con from 0.000219461 ++++++++++++++++++++++++++++++to 0.000219462
Heightened Def Con from 0.000219462 +++++++++++++++++++++++to 0.000219465
Heightened Def Con from 0.000220331 ++++++++++++++++++++++++++++++to 0.000220332
Heightened Def Con from 0.000220332 +++++++++++++++++++++++to 0.000220335
Heightened Def Con from 0.000221202 ++++++++++++++++++++++++++++++to 0.000221203
Heightened Def Con from 0.000221203 +++++++++++++++++++++++to 0.000221206
Heightened Def Con from 0.000222072 +++++++++++++++++++++++++++++++to 0.000222073
Heightened Def Con from 0.000222073 +++++++++++++++++++++++to 0.000222076
Heightened Def Con from 0.000222939 +++++++++++++++++++++++++++++++to 0.000222941
Heightened Def Con from 0.000222941 +++++++++++++++++++++++to 0.000222944
Heightened Def Con from 0.000223807 +++++++++++++++++++++++++++++++to 0.000223808
Heightened Def Con from 0.000223808 +++++++++++++++++++++++to 0.000223811
Heightened Def Con from 0.000224675 +++++++++++++++++++++++++++++++to 0.000224676
Heightened Def Con from 0.000224676 +++++++++++++++++++++++to 0.000224679
Heightened Def Con from 0.000225542 +++++++++++++++++++++++++++++++to 0.000225543
Heightened Def Con from 0.000225543 +++++++++++++++++++++++to 0.000225544
Heightened Def Con from 0.00022641 +++++++++++++++++++++++++++++++to 0.000226411
Heightened Def Con from 0.000226411 ++++++++++++++++++++++++to 0.000226414
Heightened Def Con from 0.000227278 +++++++++++++++++++++++++++++++to 0.000227279
Heightened Def Con from 0.000227279 ++++++++++++++++++++++++to 0.000227282
Heightened Def Con from 0.000228146 +++++++++++++++++++++++++++++++to 0.000228147
Heightened Def Con from 0.000228147 ++++++++++++++++++++++++to 0.00022815
Heightened Def Con from 0.000229014 +++++++++++++++++++++++++++++++to 0.000229015
Heightened Def Con from 0.000229015 ++++++++++++++++++++++++to 0.000229018
Heightened Def Con from 0.000229893 ++++++++++++++++++++++++++++++to 0.000229894
Heightened Def Con from 0.000229894 ++++++++++++++++++++++++to 0.000229897
Heightened Def Con from 0.000230761 +++++++++++++++++++++++++++++++to 0.000230762
Heightened Def Con from 0.000230762 ++++++++++++++++++++++++to 0.000230765
Heightened Def Con from 0.000231629 +++++++++++++++++++++++++++++++to 0.00023163
Heightened Def Con from 0.00023163 ++++++++++++++++++++++++to 0.000231633
Heightened Def Con from 0.000232497 +++++++++++++++++++++++++++++++to 0.000232498
Heightened Def Con from 0.000232498 ++++++++++++++++++++++++to 0.000232501
Heightened Def Con from 0.000233365 +++++++++++++++++++++++++++++++to 0.000233366
Heightened Def Con from 0.000233366 ++++++++++++++++++++++++to 0.000233369
Heightened Def Con from 0.000234232 +++++++++++++++++++++++++++++++to 0.000234234
Heightened Def Con from 0.000234234 ++++++++++++++++++++++++to 0.000234237
Heightened Def Con from 0.0002351 +++++++++++++++++++++++++++++++to 0.000235101
Heightened Def Con from 0.000235101 ++++++++++++++++++++++++to 0.000235104
Heightened Def Con from 0.000235968 +++++++++++++++++++++++++++++++to 0.000235969
Heightened Def Con from 0.000235969 +++++++++++++++++++++++to 0.00023597
Heightened Def Con from 0.000236836 +++++++++++++++++++++++++++++++to 0.000236837
Heightened Def Con from 0.000236837 +++++++++++++++++++++++to 0.000236838
Heightened Def Con from 0.000237704 +++++++++++++++++++++++++++++++to 0.000237705
Heightened Def Con from 0.000237705 +++++++++++++++++++++++to 0.000237708
Heightened Def Con from 0.000238571 +++++++++++++++++++++++++++++++to 0.000238573
Heightened Def Con from 0.000238573 +++++++++++++++++++++++to 0.000238576
Heightened Def Con from 0.000239439 +++++++++++++++++++++++++++++++to 0.00023944
Heightened Def Con from 0.00023944 +++++++++++++++++++++++to 0.000239443
Heightened Def Con from 0.000240307 +++++++++++++++++++++++++++++++to 0.000240308
Heightened Def Con from 0.000240308 +++++++++++++++++++++++to 0.000240311
Heightened Def Con from 0.000241174 +++++++++++++++++++++++++++++++to 0.000241175
Heightened Def Con from 0.000241175 +++++++++++++++++++++++to 0.000241178
Heightened Def Con from 0.000242042 +++++++++++++++++++++++++++++++to 0.000242043
Heightened Def Con from 0.000242043 +++++++++++++++++++++++to 0.000242046
Heightened Def Con from 0.000242909 +++++++++++++++++++++++++++++++to 0.00024291
Heightened Def Con from 0.00024291 +++++++++++++++++++++++to 0.000242913
Heightened Def Con from 0.000243777 +++++++++++++++++++++++++++++++to 0.000243778
Heightened Def Con from 0.000243778 +++++++++++++++++++++++to 0.000243781
Heightened Def Con from 0.000244224 ++++++++++++++++++++++++++++++to 0.000244225
Heightened Def Con from 0.000244225 +++++++++++++++++++++++to 0.000244228
Heightened Def Con from 0.000244665 to 0.000244666
Heightened Def Con from 0.000245531 +++++++++++++++++++++++++++++++to 0.000245532
Heightened Def Con from 0.000245532 +++++++++++++++++++++++to 0.000245535
Heightened Def Con from 0.000246399 +++++++++++++++++++++++++++++++to 0.0002464
Heightened Def Con from 0.0002464 +++++++++++++++++++++++to 0.000246403
Heightened Def Con from 0.000247266 +++++++++++++++++++++++++++++++to 0.000247268
Heightened Def Con from 0.000247268 +++++++++++++++++++++++to 0.000247271
Heightened Def Con from 0.000248134 +++++++++++++++++++++++++++++++to 0.000248135
Heightened Def Con from 0.000248135 +++++++++++++++++++++++to 0.000248138
Heightened Def Con from 0.000249002 ++++++++++++++++++++++++++++++to 0.000249003
Heightened Def Con from 0.000249003 +++++++++++++++++++++++to 0.000249006
Heightened Def Con from 0.000249872 ++++++++++++++++++++++++++++++to 0.000249873
Heightened Def Con from 0.000249873 +++++++++++++++++++++++to 0.000249876
Heightened Def Con from 0.000250742 ++++++++++++++++++++++++++++++to 0.000250744
Heightened Def Con from 0.000250744 +++++++++++++++++++++++to 0.000250747
Heightened Def Con from 0.000251613 ++++++++++++++++++++++++++++++to 0.000251614
Heightened Def Con from 0.000251614 +++++++++++++++++++++++to 0.000251617
Heightened Def Con from 0.000252483 ++++++++++++++++++++++++++++++to 0.000252484
Heightened Def Con from 0.000252484 +++++++++++++++++++++++to 0.000252487
Heightened Def Con from 0.000253354 ++++++++++++++++++++++++++++++to 0.000253355
Heightened Def Con from 0.000253355 +++++++++++++++++++++++to 0.000253358
Heightened Def Con from 0.000254224 ++++++++++++++++++++++++++++++to 0.000254225
Heightened Def Con from 0.000254225 +++++++++++++++++++++++to 0.000254228
Heightened Def Con from 0.000255094 ++++++++++++++++++++++++++++++to 0.000255095
Heightened Def Con from 0.000255095 +++++++++++++++++++++++to 0.000255098
Heightened Def Con from 0.000255965 ++++++++++++++++++++++++++++++to 0.000255966
Heightened Def Con from 0.000255966 +++++++++++++++++++++++to 0.000255969
Heightened Def Con from 0.000256835 ++++++++++++++++++++++++++++++to 0.000256836
Heightened Def Con from 0.000256836 +++++++++++++++++++++++to 0.000256839
Heightened Def Con from 0.000257706 ++++++++++++++++++++++++++++++to 0.000257707
Heightened Def Con from 0.000257707 +++++++++++++++++++++++to 0.00025771
Heightened Def Con from 0.000258576 ++++++++++++++++++++++++++++++to 0.000258577
Heightened Def Con from 0.000258577 +++++++++++++++++++++++to 0.00025858
Heightened Def Con from 0.000259446 ++++++++++++++++++++++++++++++to 0.000259447
Heightened Def Con from 0.000259447 +++++++++++++++++++++++to 0.00025945
Heightened Def Con from 0.000260317 ++++++++++++++++++++++++++++++to 0.000260318
Heightened Def Con from 0.000260318 +++++++++++++++++++++++to 0.000260321
Heightened Def Con from 0.000261187 ++++++++++++++++++++++++++++++to 0.000261188
Heightened Def Con from 0.000261188 +++++++++++++++++++++++to 0.000261191
Heightened Def Con from 0.000262057 ++++++++++++++++++++++++++++++to 0.000262059
Heightened Def Con from 0.000262059 +++++++++++++++++++++++to 0.000262062
Heightened Def Con from 0.000262928 ++++++++++++++++++++++++++++++to 0.000262929
Heightened Def Con from 0.000262929 +++++++++++++++++++++++to 0.000262932
Heightened Def Con from 0.000263798 ++++++++++++++++++++++++++++++to 0.000263799
Heightened Def Con from 0.000263799 +++++++++++++++++++++++to 0.000263802
Heightened Def Con from 0.000264669 ++++++++++++++++++++++++++++++to 0.00026467
Heightened Def Con from 0.00026467 +++++++++++++++++++++++to 0.000264673
Heightened Def Con from 0.000265539 ++++++++++++++++++++++++++++++to 0.00026554
Heightened Def Con from 0.00026554 +++++++++++++++++++++++to 0.000265543
Heightened Def Con from 0.000266409 ++++++++++++++++++++++++++++++to 0.000266411
Heightened Def Con from 0.000266411 +++++++++++++++++++++++to 0.000266414
Heightened Def Con from 0.00026728 ++++++++++++++++++++++++++++++to 0.000267281
Heightened Def Con from 0.000267281 +++++++++++++++++++++++to 0.000267284
Heightened Def Con from 0.00026815 ++++++++++++++++++++++++++++++to 0.000268151
Heightened Def Con from 0.000268151 +++++++++++++++++++++++to 0.000268154
Heightened Def Con from 0.000269021 ++++++++++++++++++++++++++++++to 0.000269022
Heightened Def Con from 0.000269022 +++++++++++++++++++++++to 0.000269025
Heightened Def Con from 0.000269891 ++++++++++++++++++++++++++++++to 0.000269892
Heightened Def Con from 0.000269892 +++++++++++++++++++++++to 0.000269895
Heightened Def Con from 0.000270753 to 0.000270754
Heightened Def Con from 0.000271201 +++++++++++++++++++++++++++++to 0.000271202
Heightened Def Con from 0.000271645 to 0.000271646
Heightened Def Con from 0.000272093 +++++++++++++++++++++++++++++to 0.000272094
Heightened Def Con from 0.000272535 to 0.000272536
Heightened Def Con from 0.000272983 to 0.000272983
Heightened Def Con from 0.000272983 +++++++++++++++++++++++++++++to 0.000272984
Heightened Def Con from 0.00027429 ++++++++++++++++++++++++++++++to 0.000274292
Heightened Def Con from 0.000274292 +++++++++++++++++++++++to 0.000274295
Heightened Def Con from 0.000275161 ++++++++++++++++++++++++++++++to 0.000275162
Heightened Def Con from 0.000275162 +++++++++++++++++++++++to 0.000275165
Heightened Def Con from 0.000276031 ++++++++++++++++++++++++++++++to 0.000276032
Heightened Def Con from 0.000276032 +++++++++++++++++++++++to 0.000276035
Heightened Def Con from 0.000276902 ++++++++++++++++++++++++++++++to 0.000276903
Heightened Def Con from 0.000276903 +++++++++++++++++++++++to 0.000276906
Heightened Def Con from 0.000277772 ++++++++++++++++++++++++++++++to 0.000277773
Heightened Def Con from 0.000277773 +++++++++++++++++++++++to 0.000277776
Heightened Def Con from 0.000278642 ++++++++++++++++++++++++++++++to 0.000278643
Heightened Def Con from 0.000278643 +++++++++++++++++++++++to 0.000278646
Heightened Def Con from 0.000279513 ++++++++++++++++++++++++++++++to 0.000279514
Heightened Def Con from 0.000279514 +++++++++++++++++++++++to 0.000279517
Heightened Def Con from 0.000280383 +++++++++++++++++++++++++++++++to 0.000280384
Heightened Def Con from 0.000280384 +++++++++++++++++++++++to 0.000280387
Heightened Def Con from 0.000281251 +++++++++++++++++++++++++++++++to 0.000281252
Heightened Def Con from 0.000281252 +++++++++++++++++++++++to 0.000281255
Heightened Def Con from 0.000282118 +++++++++++++++++++++++++++++++to 0.000282119
Heightened Def Con from 0.000282119 +++++++++++++++++++++++to 0.000282122
Heightened Def Con from 0.000282986 +++++++++++++++++++++++++++++++to 0.000282987
Heightened Def Con from 0.000282987 +++++++++++++++++++++++to 0.00028299
Heightened Def Con from 0.000283853 +++++++++++++++++++++++++++++++to 0.000283855
Heightened Def Con from 0.000283855 +++++++++++++++++++++++to 0.000283858
Heightened Def Con from 0.000284721 +++++++++++++++++++++++++++++++to 0.000284722
Heightened Def Con from 0.000284722 ++++++++++++++++++++++++to 0.000284725
Heightened Def Con from 0.000285589 +++++++++++++++++++++++++++++++to 0.00028559
Heightened Def Con from 0.00028559 ++++++++++++++++++++++++to 0.000285593
Heightened Def Con from 0.000286457 +++++++++++++++++++++++++++++++to 0.000286458
Heightened Def Con from 0.000286458 ++++++++++++++++++++++++to 0.000286461
Heightened Def Con from 0.000287325 +++++++++++++++++++++++++++++++to 0.000287326
Heightened Def Con from 0.000287326 ++++++++++++++++++++++++to 0.000287329
Heightened Def Con from 0.000288193 +++++++++++++++++++++++++++++++to 0.000288194
Heightened Def Con from 0.000288194 ++++++++++++++++++++++++to 0.000288197
Heightened Def Con from 0.00028906 +++++++++++++++++++++++++++++++to 0.000289062
Heightened Def Con from 0.000289062 ++++++++++++++++++++++++to 0.000289065
Heightened Def Con from 0.000289928 +++++++++++++++++++++++++++++++to 0.000289929
Heightened Def Con from 0.000289929 ++++++++++++++++++++++++to 0.000289932
Heightened Def Con from 0.000290796 +++++++++++++++++++++++++++++++to 0.000290797
Heightened Def Con from 0.000290797 ++++++++++++++++++++++++to 0.0002908
Heightened Def Con from 0.000291664 +++++++++++++++++++++++++++++++to 0.000291665
Heightened Def Con from 0.000291665 ++++++++++++++++++++++++to 0.000291668
Heightened Def Con from 0.000292532 +++++++++++++++++++++++++++++++to 0.000292533
Heightened Def Con from 0.000292533 ++++++++++++++++++++++++to 0.000292536
Heightened Def Con from 0.0002934 +++++++++++++++++++++++++++++++to 0.000293401
Heightened Def Con from 0.000293401 ++++++++++++++++++++++++to 0.000293404
Heightened Def Con from 0.000294268 +++++++++++++++++++++++++++++++to 0.000294269
Heightened Def Con from 0.000294269 ++++++++++++++++++++++++to 0.000294272
Heightened Def Con from 0.000295136 +++++++++++++++++++++++++++++++to 0.000295137
Heightened Def Con from 0.000295137 ++++++++++++++++++++++++to 0.00029514
Heightened Def Con from 0.000296003 +++++++++++++++++++++++++++++++to 0.000296005
Heightened Def Con from 0.000296005 ++++++++++++++++++++++++to 0.000296008
Heightened Def Con from 0.000296448 +++++++++++++++++++++++++++++++to 0.00029645
Heightened Def Con from 0.00029645 ++++++++++++++++++++++++to 0.000296453
Heightened Def Con from 0.000296894 +++++++++++++++++++++++++++++++to 0.000296896
Heightened Def Con from 0.000296896 ++++++++++++++++++++++++to 0.000296899
Heightened Def Con from 0.000297762 +++++++++++++++++++++++++++++++to 0.000297763
Heightened Def Con from 0.000297763 ++++++++++++++++++++++++to 0.000297766
Heightened Def Con from 0.00029863 +++++++++++++++++++++++++++++++to 0.000298631
Heightened Def Con from 0.000298631 ++++++++++++++++++++++++to 0.000298634
Heightened Def Con from 0.000299498 +++++++++++++++++++++++++++++++to 0.000299499
Heightened Def Con from 0.000299499 ++++++++++++++++++++++++to 0.000299502
Heightened Def Con from 0.000300366 +++++++++++++++++++++++++++++++to 0.000300367
Heightened Def Con from 0.000300367 ++++++++++++++++++++++++to 0.00030037
Heightened Def Con from 0.000301234 +++++++++++++++++++++++++++++++to 0.000301235
Heightened Def Con from 0.000301235 ++++++++++++++++++++++++to 0.000301238
Heightened Def Con from 0.000302102 +++++++++++++++++++++++++++++++to 0.000302103
Heightened Def Con from 0.000302103 ++++++++++++++++++++++++to 0.000302106
Heightened Def Con from 0.00030297 +++++++++++++++++++++++++++++++to 0.000302971
Heightened Def Con from 0.000302971 ++++++++++++++++++++++++to 0.000302974
Heightened Def Con from 0.000303837 +++++++++++++++++++++++++++++++to 0.000303839
Heightened Def Con from 0.000303839 ++++++++++++++++++++++++to 0.000303842
Heightened Def Con from 0.000304705 +++++++++++++++++++++++++++++++to 0.000304706
Heightened Def Con from 0.000304706 ++++++++++++++++++++++++to 0.000304709
Heightened Def Con from 0.000305573 +++++++++++++++++++++++++++++++to 0.000305574
Heightened Def Con from 0.000305574 ++++++++++++++++++++++++to 0.000305577
Heightened Def Con from 0.000306441 +++++++++++++++++++++++++++++++to 0.000306442
Heightened Def Con from 0.000306442 ++++++++++++++++++++++++to 0.000306445
Heightened Def Con from 0.000307309 +++++++++++++++++++++++++++++++to 0.00030731
Heightened Def Con from 0.00030731 ++++++++++++++++++++++++to 0.000307313
Heightened Def Con from 0.000308177 +++++++++++++++++++++++++++++++to 0.000308178
Heightened Def Con from 0.000308178 ++++++++++++++++++++++++to 0.000308181
Heightened Def Con from 0.000309045 +++++++++++++++++++++++++++++++to 0.000309046
Heightened Def Con from 0.000309046 ++++++++++++++++++++++++to 0.000309049
Heightened Def Con from 0.000309913 +++++++++++++++++++++++++++++++to 0.000309914
Heightened Def Con from 0.000309914 ++++++++++++++++++++++++to 0.000309917
Heightened Def Con from 0.00031078 +++++++++++++++++++++++++++++++to 0.000310782
Heightened Def Con from 0.000310782 ++++++++++++++++++++++++to 0.000310785
Heightened Def Con from 0.000311648 +++++++++++++++++++++++++++++++to 0.000311649
Heightened Def Con from 0.000311649 ++++++++++++++++++++++++to 0.000311652
Heightened Def Con from 0.000312516 +++++++++++++++++++++++++++++++to 0.000312517
Heightened Def Con from 0.000312517 ++++++++++++++++++++++++to 0.00031252
Heightened Def Con from 0.000313384 +++++++++++++++++++++++++++++++to 0.000313385
Heightened Def Con from 0.000313385 ++++++++++++++++++++++++to 0.000313388
Heightened Def Con from 0.000314252 +++++++++++++++++++++++++++++++to 0.000314253
Heightened Def Con from 0.000314253 ++++++++++++++++++++++++to 0.000314256
Heightened Def Con from 0.00031512 +++++++++++++++++++++++++++++++to 0.000315121
Heightened Def Con from 0.000315121 ++++++++++++++++++++++++to 0.000315124
Heightened Def Con from 0.000315988 +++++++++++++++++++++++++++++++to 0.000315989
Heightened Def Con from 0.000315989 ++++++++++++++++++++++++to 0.000315992
Heightened Def Con from 0.000316856 +++++++++++++++++++++++++++++++to 0.000316857
Heightened Def Con from 0.000316857 ++++++++++++++++++++++++to 0.00031686
Heightened Def Con from 0.000317723 +++++++++++++++++++++++++++++++to 0.000317725
Heightened Def Con from 0.000317725 ++++++++++++++++++++++++to 0.000317728
Heightened Def Con from 0.000318591 +++++++++++++++++++++++++++++++to 0.000318592
Heightened Def Con from 0.000318592 +++++++++++++++++++++++to 0.000318595
Heightened Def Con from 0.000319459 +++++++++++++++++++++++++++++++to 0.00031946
Heightened Def Con from 0.00031946 +++++++++++++++++++++++to 0.000319461
Heightened Def Con from 0.000320327 +++++++++++++++++++++++++++++++to 0.000320328
Heightened Def Con from 0.000320328 +++++++++++++++++++++++to 0.000320331
Heightened Def Con from 0.000321194 +++++++++++++++++++++++++++++++to 0.000321195
Heightened Def Con from 0.000321195 +++++++++++++++++++++++to 0.000321198
Heightened Def Con from 0.000322062 +++++++++++++++++++++++++++++++to 0.000322063
Heightened Def Con from 0.000322063 +++++++++++++++++++++++to 0.000322066
Heightened Def Con from 0.000322929 +++++++++++++++++++++++++++++++to 0.000322931
Heightened Def Con from 0.000322931 +++++++++++++++++++++++to 0.000322934
Heightened Def Con from 0.000323797 +++++++++++++++++++++++++++++++to 0.000323798
Heightened Def Con from 0.000323798 +++++++++++++++++++++++to 0.000323801
Heightened Def Con from 0.000324665 +++++++++++++++++++++++++++++++to 0.000324666
Heightened Def Con from 0.000324666 +++++++++++++++++++++++to 0.000324669
Heightened Def Con from 0.000325532 +++++++++++++++++++++++++++++++to 0.000325533
Heightened Def Con from 0.000325533 +++++++++++++++++++++++to 0.000325536
Heightened Def Con from 0.0003264 +++++++++++++++++++++++++++++++to 0.000326401
Heightened Def Con from 0.000326401 +++++++++++++++++++++++to 0.000326404
Heightened Def Con from 0.000327267 +++++++++++++++++++++++++++++++to 0.000327269
Heightened Def Con from 0.000327269 +++++++++++++++++++++++to 0.000327272
Heightened Def Con from 0.000328135 +++++++++++++++++++++++++++++++to 0.000328136
Heightened Def Con from 0.000328136 +++++++++++++++++++++++to 0.000328139
Heightened Def Con from 0.000329003 +++++++++++++++++++++++++++++++to 0.000329004
Heightened Def Con from 0.000329004 +++++++++++++++++++++++to 0.000329007
Heightened Def Con from 0.00032987 +++++++++++++++++++++++++++++++to 0.000329871
Heightened Def Con from 0.000329871 +++++++++++++++++++++++to 0.000329874
Heightened Def Con from 0.000330738 ++++++++++++++++++++++++++++++to 0.000330739
Heightened Def Con from 0.000330739 +++++++++++++++++++++++to 0.000330742
Heightened Def Con from 0.000331608 ++++++++++++++++++++++++++++++to 0.000331609
Heightened Def Con from 0.000331609 +++++++++++++++++++++++to 0.000331612
Heightened Def Con from 0.000332479 ++++++++++++++++++++++++++++++to 0.00033248
Heightened Def Con from 0.00033248 +++++++++++++++++++++++to 0.000332483
Heightened Def Con from 0.000333349 ++++++++++++++++++++++++++++++to 0.00033335
Heightened Def Con from 0.00033335 +++++++++++++++++++++++to 0.000333353
Heightened Def Con from 0.000334219 ++++++++++++++++++++++++++++++to 0.00033422
Heightened Def Con from 0.00033422 +++++++++++++++++++++++to 0.000334223
Heightened Def Con from 0.00033509 ++++++++++++++++++++++++++++++to 0.000335091
Heightened Def Con from 0.000335091 +++++++++++++++++++++++to 0.000335094
Heightened Def Con from 0.00033596 ++++++++++++++++++++++++++++++to 0.000335961
Heightened Def Con from 0.000335961 +++++++++++++++++++++++to 0.000335964
Heightened Def Con from 0.00033683 ++++++++++++++++++++++++++++++to 0.000336832
Heightened Def Con from 0.000336832 +++++++++++++++++++++++to 0.000336835
Heightened Def Con from 0.000337708 +++++++++++++++++++++++++++to 0.000337709
Heightened Def Con from 0.000338578 ++++++++++++++++++++++++++++++to 0.000338579
Heightened Def Con from 0.000338579 +++++++++++++++++++++++to 0.000338582
Heightened Def Con from 0.000339449 ++++++++++++++++++++++++++++++to 0.00033945
Heightened Def Con from 0.00033945 +++++++++++++++++++++++to 0.000339453
Heightened Def Con from 0.000340319 ++++++++++++++++++++++++++++++to 0.00034032
Heightened Def Con from 0.00034032 +++++++++++++++++++++++to 0.000340323
Heightened Def Con from 0.000341189 +++++++++++++++++++++++++++++++to 0.00034119
Heightened Def Con from 0.00034119 +++++++++++++++++++++++to 0.000341193
Heightened Def Con from 0.000342057 +++++++++++++++++++++++++++++++to 0.000342058
Heightened Def Con from 0.000342058 +++++++++++++++++++++++to 0.000342061
Heightened Def Con from 0.000342925 +++++++++++++++++++++++++++++++to 0.000342926
Heightened Def Con from 0.000342926 +++++++++++++++++++++++to 0.000342929
Heightened Def Con from 0.000343792 +++++++++++++++++++++++++++++++to 0.000343793
Heightened Def Con from 0.000343793 +++++++++++++++++++++++to 0.000343796
Heightened Def Con from 0.00034466 +++++++++++++++++++++++++++++++to 0.000344661
Heightened Def Con from 0.000344661 +++++++++++++++++++++++to 0.000344662
Heightened Def Con from 0.000345528 +++++++++++++++++++++++++++++++to 0.000345529
Heightened Def Con from 0.000345529 ++++++++++++++++++++++++to 0.000345532
Heightened Def Con from 0.000346395 +++++++++++++++++++++++++++++++to 0.000346397
Heightened Def Con from 0.000346397 ++++++++++++++++++++++++to 0.0003464
Heightened Def Con from 0.000347263 +++++++++++++++++++++++++++++++to 0.000347264
Heightened Def Con from 0.000347264 ++++++++++++++++++++++++to 0.000347267
Heightened Def Con from 0.000348131 +++++++++++++++++++++++++++++++to 0.000348132
Heightened Def Con from 0.000348132 ++++++++++++++++++++++++to 0.000348135
Heightened Def Con from 0.000348999 +++++++++++++++++++++++++++++++to 0.000349
Heightened Def Con from 0.000349 ++++++++++++++++++++++++to 0.000349003
Heightened Def Con from 0.000349867 +++++++++++++++++++++++++++++++to 0.000349868
Heightened Def Con from 0.000349868 ++++++++++++++++++++++++to 0.000349871
Heightened Def Con from 0.000350735 +++++++++++++++++++++++++++++++to 0.000350736
Heightened Def Con from 0.000350736 ++++++++++++++++++++++++to 0.000350739
Heightened Def Con from 0.000351603 +++++++++++++++++++++++++++++++to 0.000351604
Heightened Def Con from 0.000351604 ++++++++++++++++++++++++to 0.000351607
Heightened Def Con from 0.000352471 +++++++++++++++++++++++++++++++to 0.000352472
Heightened Def Con from 0.000352472 ++++++++++++++++++++++++to 0.000352475
Heightened Def Con from 0.000353338 +++++++++++++++++++++++++++++++to 0.00035334
Heightened Def Con from 0.00035334 ++++++++++++++++++++++++to 0.000353343
Heightened Def Con from 0.000354206 +++++++++++++++++++++++++++++++to 0.000354207
Heightened Def Con from 0.000354207 ++++++++++++++++++++++++to 0.00035421
Heightened Def Con from 0.000355074 +++++++++++++++++++++++++++++++to 0.000355075
Heightened Def Con from 0.000355075 ++++++++++++++++++++++++to 0.000355078
Heightened Def Con from 0.000355942 +++++++++++++++++++++++++++++++to 0.000355943
Heightened Def Con from 0.000355943 ++++++++++++++++++++++++to 0.000355946
Heightened Def Con from 0.00035681 +++++++++++++++++++++++++++++++to 0.000356811
Heightened Def Con from 0.000356811 ++++++++++++++++++++++++to 0.000356814
Heightened Def Con from 0.000357678 +++++++++++++++++++++++++++++++to 0.000357679
Heightened Def Con from 0.000357679 ++++++++++++++++++++++++to 0.000357682
Heightened Def Con from 0.000358546 +++++++++++++++++++++++++++++++to 0.000358547
Heightened Def Con from 0.000358547 ++++++++++++++++++++++++to 0.00035855
Heightened Def Con from 0.000359414 +++++++++++++++++++++++++++++++to 0.000359415
Heightened Def Con from 0.000359415 ++++++++++++++++++++++++to 0.000359418
Heightened Def Con from 0.000360281 +++++++++++++++++++++++++++++++to 0.000360283
Heightened Def Con from 0.000360283 ++++++++++++++++++++++++to 0.000360286
Heightened Def Con from 0.000361149 +++++++++++++++++++++++to 0.000361149
Heightened Def Con from 0.00036202 +++++++++++++++++++++++to 0.00036202
Heightened Def Con from 0.000362892 ++++++++++++++++++++++to 0.000362892
Heightened Def Con from 0.000363334 ++++++++++++++++++++++++++++++to 0.000363335
Heightened Def Con from 0.000363335 ++++++++++++++++++++++++to 0.000363338
Heightened Def Con from 0.000363779 +++++++++++++++++++++++++++++++to 0.000363781
Heightened Def Con from 0.000363781 ++++++++++++++++++++++++to 0.000363784
Heightened Def Con from 0.000364647 +++++++++++++++++++++++to 0.000364647
Heightened Def Con from 0.000365519 +++++++++++++++++++++++to 0.000365519
Heightened Def Con from 0.00036639 +++++++++++++++++++++++to 0.00036639
Heightened Def Con from 0.000367261 +++++++++++++++++++++++++++++++to 0.000367262
Heightened Def Con from 0.000367262 ++++++++++++++++++++++++to 0.000367265
Heightened Def Con from 0.000368129 +++++++++++++++++++++++++++++++to 0.00036813
Heightened Def Con from 0.00036813 ++++++++++++++++++++++++to 0.000368133
Heightened Def Con from 0.000368997 +++++++++++++++++++++++++++++++to 0.000368998
Heightened Def Con from 0.000368998 ++++++++++++++++++++++++to 0.000369001
Heightened Def Con from 0.000369864 +++++++++++++++++++++++++++++++to 0.000369866
Heightened Def Con from 0.000369866 ++++++++++++++++++++++++to 0.000369869
Heightened Def Con from 0.000370732 +++++++++++++++++++++++++++++++to 0.000370733
Heightened Def Con from 0.000370733 ++++++++++++++++++++++++to 0.000370736
Heightened Def Con from 0.0003716 +++++++++++++++++++++++++++++++to 0.000371601
Heightened Def Con from 0.000371601 ++++++++++++++++++++++++to 0.000371604
Heightened Def Con from 0.000372468 +++++++++++++++++++++++++++++++to 0.000372469
Heightened Def Con from 0.000372469 ++++++++++++++++++++++++to 0.000372472
Heightened Def Con from 0.000373336 +++++++++++++++++++++++++++++++to 0.000373337
Heightened Def Con from 0.000373337 ++++++++++++++++++++++++to 0.00037334
Heightened Def Con from 0.000374204 +++++++++++++++++++++++++++++++to 0.000374205
Heightened Def Con from 0.000374205 ++++++++++++++++++++++++to 0.000374208
Heightened Def Con from 0.000375072 +++++++++++++++++++++++++++++++to 0.000375073
Heightened Def Con from 0.000375073 ++++++++++++++++++++++++to 0.000375076
Heightened Def Con from 0.00037594 +++++++++++++++++++++++++++++++to 0.000375941
Heightened Def Con from 0.000375941 ++++++++++++++++++++++++to 0.000375944
Heightened Def Con from 0.000376807 +++++++++++++++++++++++++++++++to 0.000376809
Heightened Def Con from 0.000376809 ++++++++++++++++++++++++to 0.000376812
Heightened Def Con from 0.000377675 +++++++++++++++++++++++++++++++to 0.000377676
Heightened Def Con from 0.000377676 ++++++++++++++++++++++++to 0.000377679
Heightened Def Con from 0.000378543 +++++++++++++++++++++++++++++++to 0.000378544
Heightened Def Con from 0.000378544 ++++++++++++++++++++++++to 0.000378547
Heightened Def Con from 0.000379411 +++++++++++++++++++++++++++++++to 0.000379412
Heightened Def Con from 0.000379412 ++++++++++++++++++++++++to 0.000379415
Heightened Def Con from 0.000380279 +++++++++++++++++++++++++++++++to 0.00038028
Heightened Def Con from 0.00038028 ++++++++++++++++++++++++to 0.000380283
Heightened Def Con from 0.000381147 +++++++++++++++++++++++++++++++to 0.000381148
Heightened Def Con from 0.000381148 ++++++++++++++++++++++++to 0.000381151
Heightened Def Con from 0.000382015 +++++++++++++++++++++++++++++++to 0.000382016
Heightened Def Con from 0.000382016 ++++++++++++++++++++++++to 0.000382019
Heightened Def Con from 0.000382883 +++++++++++++++++++++++++++++++to 0.000382884
Heightened Def Con from 0.000382884 ++++++++++++++++++++++++to 0.000382887
Heightened Def Con from 0.00038375 +++++++++++++++++++++++++++++++to 0.000383752
Heightened Def Con from 0.000383752 ++++++++++++++++++++++++to 0.000383755
Heightened Def Con from 0.000384618 +++++++++++++++++++++++++++++++to 0.000384619
Heightened Def Con from 0.000384619 ++++++++++++++++++++++++to 0.000384622
Heightened Def Con from 0.000385486 +++++++++++++++++++++++++++++++to 0.000385487
Heightened Def Con from 0.000385487 ++++++++++++++++++++++++to 0.00038549
Heightened Def Con from 0.000386354 +++++++++++++++++++++++++++++++to 0.000386355
Heightened Def Con from 0.000386355 ++++++++++++++++++++++++to 0.000386358
Heightened Def Con from 0.000387222 +++++++++++++++++++++++++++++++to 0.000387223
Heightened Def Con from 0.000387223 ++++++++++++++++++++++++to 0.000387226
Heightened Def Con from 0.00038809 +++++++++++++++++++++++++++++++to 0.000388091
Heightened Def Con from 0.000388091 ++++++++++++++++++++++++to 0.000388094
Heightened Def Con from 0.000388958 +++++++++++++++++++++++++++++++to 0.000388959
Heightened Def Con from 0.000388959 ++++++++++++++++++++++++to 0.000388962
Heightened Def Con from 0.000389826 +++++++++++++++++++++++++++++++to 0.000389827
Heightened Def Con from 0.000389827 ++++++++++++++++++++++++to 0.00038983
Heightened Def Con from 0.000390693 +++++++++++++++++++++++++++++++to 0.000390695
Heightened Def Con from 0.000390695 ++++++++++++++++++++++++to 0.000390698
Heightened Def Con from 0.000391561 +++++++++++++++++++++++++++++++to 0.000391562
Heightened Def Con from 0.000391562 ++++++++++++++++++++++++to 0.000391565
Heightened Def Con from 0.000392429 +++++++++++++++++++++++++++++++to 0.00039243
Heightened Def Con from 0.00039243 ++++++++++++++++++++++++to 0.000392433
Heightened Def Con from 0.000393297 +++++++++++++++++++++++++++++++to 0.000393298
Heightened Def Con from 0.000393298 ++++++++++++++++++++++++to 0.000393301
Heightened Def Con from 0.000394165 +++++++++++++++++++++++++++++++to 0.000394166
Heightened Def Con from 0.000394166 ++++++++++++++++++++++++to 0.000394169
Heightened Def Con from 0.000395033 +++++++++++++++++++++++++++++++to 0.000395034
Heightened Def Con from 0.000395034 +++++++++++++++++++++++to 0.000395037
Heightened Def Con from 0.0003959 +++++++++++++++++++++++++++++++to 0.000395901
Heightened Def Con from 0.000395901 +++++++++++++++++++++++to 0.000395902
Heightened Def Con from 0.000396768 +++++++++++++++++++++++++++++++to 0.000396769
Heightened Def Con from 0.000396769 +++++++++++++++++++++++to 0.000396772
Heightened Def Con from 0.000397636 +++++++++++++++++++++++++++++++to 0.000397637
Heightened Def Con from 0.000397637 +++++++++++++++++++++++to 0.00039764
Heightened Def Con from 0.000398503 +++++++++++++++++++++++++++++++to 0.000398504
Heightened Def Con from 0.000398504 +++++++++++++++++++++++to 0.000398507
Heightened Def Con from 0.000399371 +++++++++++++++++++++++++++++++to 0.000399372
Heightened Def Con from 0.000399372 +++++++++++++++++++++++to 0.000399375
Heightened Def Con from 0.000400239 +++++++++++++++++++++++++++++++to 0.00040024
Heightened Def Con from 0.00040024 +++++++++++++++++++++++to 0.000400243
Heightened Def Con from 0.000401106 +++++++++++++++++++++++++++++++to 0.000401107
Heightened Def Con from 0.000401107 +++++++++++++++++++++++to 0.00040111
Heightened Def Con from 0.000401974 +++++++++++++++++++++++++++++++to 0.000401975
Heightened Def Con from 0.000401975 +++++++++++++++++++++++to 0.000401978
Heightened Def Con from 0.000402841 +++++++++++++++++++++++++++++++to 0.000402842
Heightened Def Con from 0.000402842 +++++++++++++++++++++++to 0.000402845
Heightened Def Con from 0.000403708 ++++++++++++++++++++++++++++++to 0.000403709
Heightened Def Con from 0.000403709 +++++++++++++++++++++++to 0.000403712
Heightened Def Con from 0.000404578 +++++++++++++++++++++++++++++++to 0.00040458
Heightened Def Con from 0.00040458 +++++++++++++++++++++++to 0.000404583
Heightened Def Con from 0.000405446 +++++++++++++++++++++++++++++++to 0.000405447
Heightened Def Con from 0.000405447 +++++++++++++++++++++++to 0.00040545
Heightened Def Con from 0.000406314 +++++++++++++++++++++++++++++++to 0.000406315
Heightened Def Con from 0.000406315 +++++++++++++++++++++++to 0.000406318
Heightened Def Con from 0.000407181 +++++++++++++++++++++++++++++++to 0.000407182
Heightened Def Con from 0.000407182 +++++++++++++++++++++++to 0.000407183
Heightened Def Con from 0.000408049 +++++++++++++++++++++++++++++++to 0.00040805
Heightened Def Con from 0.00040805 ++++++++++++++++++++++++to 0.000408053
Heightened Def Con from 0.000408917 +++++++++++++++++++++++++++++++to 0.000408918
Heightened Def Con from 0.000408918 ++++++++++++++++++++++++to 0.000408921
Heightened Def Con from 0.000409785 +++++++++++++++++++++++++++++++to 0.000409786
Heightened Def Con from 0.000409786 ++++++++++++++++++++++++to 0.000409789
Heightened Def Con from 0.000410653 +++++++++++++++++++++++++++++++to 0.000410654
Heightened Def Con from 0.000410654 ++++++++++++++++++++++++to 0.000410657
Heightened Def Con from 0.000411521 +++++++++++++++++++++++++++++++to 0.000411522
Heightened Def Con from 0.000411522 ++++++++++++++++++++++++to 0.000411525
Heightened Def Con from 0.000412388 +++++++++++++++++++++++++++++++to 0.00041239
Heightened Def Con from 0.00041239 ++++++++++++++++++++++++to 0.000412393
Heightened Def Con from 0.000413256 +++++++++++++++++++++++++++++++to 0.000413257
Heightened Def Con from 0.000413257 ++++++++++++++++++++++++to 0.00041326
Heightened Def Con from 0.000414124 +++++++++++++++++++++++++++++++to 0.000414125
Heightened Def Con from 0.000414125 ++++++++++++++++++++++++to 0.000414128
Heightened Def Con from 0.000414992 +++++++++++++++++++++++++++++++to 0.000414993
Heightened Def Con from 0.000414993 ++++++++++++++++++++++++to 0.000414996
Heightened Def Con from 0.00041586 +++++++++++++++++++++++++++++++to 0.000415861
Heightened Def Con from 0.000415861 ++++++++++++++++++++++++to 0.000415864
Heightened Def Con from 0.000416728 +++++++++++++++++++++++++++++++to 0.000416729
Heightened Def Con from 0.000416729 ++++++++++++++++++++++++to 0.000416732
Heightened Def Con from 0.000417596 +++++++++++++++++++++++++++++++to 0.000417597
Heightened Def Con from 0.000417597 ++++++++++++++++++++++++to 0.0004176
Heightened Def Con from 0.000418464 +++++++++++++++++++++++++++++++to 0.000418465
Heightened Def Con from 0.000418465 ++++++++++++++++++++++++to 0.000418468
Heightened Def Con from 0.000419331 +++++++++++++++++++++++++++++++to 0.000419333
Heightened Def Con from 0.000419333 ++++++++++++++++++++++++to 0.000419336
Heightened Def Con from 0.000420199 +++++++++++++++++++++++++++++++to 0.0004202
Heightened Def Con from 0.0004202 ++++++++++++++++++++++++to 0.000420203
Heightened Def Con from 0.000421067 +++++++++++++++++++++++++++++++to 0.000421068
Heightened Def Con from 0.000421068 ++++++++++++++++++++++++to 0.000421071
Heightened Def Con from 0.000421935 +++++++++++++++++++++++++++++++to 0.000421936
Heightened Def Con from 0.000421936 ++++++++++++++++++++++++to 0.000421939
Heightened Def Con from 0.000422803 +++++++++++++++++++++++++++++++to 0.000422804
Heightened Def Con from 0.000422804 ++++++++++++++++++++++++to 0.000422807
Heightened Def Con from 0.000423671 +++++++++++++++++++++++to 0.000423671
Heightened Def Con from 0.000424542 ++++++++++++++++++++++to 0.000424542
Heightened Def Con from 0.000425413 ++++++++++++++++++++to 0.000425413
Heightened Def Con from 0.000426284 to 0.000426284
Heightened Def Con from 0.000441897 +++++++++++++++++++++++to 0.000441897
Heightened Def Con from 0.000442768 +++++++++++++++++++++++++++++++to 0.00044277
Heightened Def Con from 0.00044277 ++++++++++++++++++++++++to 0.000442773
Heightened Def Con from 0.000443636 +++++++++++++++++++++++++++++++to 0.000443637
Heightened Def Con from 0.000443637 ++++++++++++++++++++++++to 0.00044364
Heightened Def Con from 0.000444504 +++++++++++++++++++++++++++++++to 0.000444505
Heightened Def Con from 0.000444505 ++++++++++++++++++++++++to 0.000444508
Heightened Def Con from 0.000445372 +++++++++++++++++++++++++++++++to 0.000445373
Heightened Def Con from 0.000445373 ++++++++++++++++++++++++to 0.000445376
Heightened Def Con from 0.00044624 +++++++++++++++++++++++++++++++to 0.000446241
Heightened Def Con from 0.000446241 ++++++++++++++++++++++++to 0.000446244
Heightened Def Con from 0.000447108 +++++++++++++++++++++++++++++++to 0.000447109
Heightened Def Con from 0.000447109 ++++++++++++++++++++++++to 0.000447112
Heightened Def Con from 0.000447976 +++++++++++++++++++++++++++++++to 0.000447977
Heightened Def Con from 0.000447977 ++++++++++++++++++++++++to 0.00044798
Heightened Def Con from 0.000448844 +++++++++++++++++++++++++++++++to 0.000448845
Heightened Def Con from 0.000448845 ++++++++++++++++++++++++to 0.000448848
Heightened Def Con from 0.000449711 +++++++++++++++++++++++++++++++to 0.000449713
Heightened Def Con from 0.000449713 ++++++++++++++++++++++++to 0.000449716
Heightened Def Con from 0.000450579 +++++++++++++++++++++++++++++++to 0.00045058
Heightened Def Con from 0.00045058 ++++++++++++++++++++++++to 0.000450583
Heightened Def Con from 0.000451447 +++++++++++++++++++++++++++++++to 0.000451448
Heightened Def Con from 0.000451448 ++++++++++++++++++++++++to 0.000451451
Heightened Def Con from 0.000452315 +++++++++++++++++++++++++++++++to 0.000452316
Heightened Def Con from 0.000452316 ++++++++++++++++++++++++to 0.000452319
Heightened Def Con from 0.000453183 +++++++++++++++++++++++++++++++to 0.000453184
Heightened Def Con from 0.000453184 ++++++++++++++++++++++++to 0.000453187
Heightened Def Con from 0.000454051 +++++++++++++++++++++++++++++++to 0.000454052
Heightened Def Con from 0.000454052 ++++++++++++++++++++++++to 0.000454055
Heightened Def Con from 0.000454919 +++++++++++++++++++++++++++++++to 0.00045492
Heightened Def Con from 0.00045492 ++++++++++++++++++++++++to 0.000454923
Heightened Def Con from 0.000455786 +++++++++++++++++++++++++++++++to 0.000455788
Heightened Def Con from 0.000455788 ++++++++++++++++++++++++to 0.000455791
Heightened Def Con from 0.000456654 +++++++++++++++++++++++++++++++to 0.000456655
Heightened Def Con from 0.000456655 ++++++++++++++++++++++++to 0.000456658
Heightened Def Con from 0.000457522 +++++++++++++++++++++++++++++++to 0.000457523
Heightened Def Con from 0.000457523 ++++++++++++++++++++++++to 0.000457526
Heightened Def Con from 0.00045839 +++++++++++++++++++++++++++++++to 0.000458391
Heightened Def Con from 0.000458391 ++++++++++++++++++++++++to 0.000458394
Heightened Def Con from 0.000459258 +++++++++++++++++++++++++++++++to 0.000459259
Heightened Def Con from 0.000459259 ++++++++++++++++++++++++to 0.000459262
Heightened Def Con from 0.000460126 +++++++++++++++++++++++++++++++to 0.000460127
Heightened Def Con from 0.000460127 ++++++++++++++++++++++++to 0.00046013
Heightened Def Con from 0.000460994 +++++++++++++++++++++++++++++++to 0.000460995
Heightened Def Con from 0.000460995 ++++++++++++++++++++++++to 0.000460998
Heightened Def Con from 0.000461862 +++++++++++++++++++++++++++++++to 0.000461863
Heightened Def Con from 0.000461863 ++++++++++++++++++++++++to 0.000461866
Heightened Def Con from 0.000462729 +++++++++++++++++++++++++++++++to 0.000462731
Heightened Def Con from 0.000462731 ++++++++++++++++++++++++to 0.000462734
Heightened Def Con from 0.000463597 +++++++++++++++++++++++++++++++to 0.000463598
Heightened Def Con from 0.000463598 ++++++++++++++++++++++++to 0.000463601
Heightened Def Con from 0.000464465 +++++++++++++++++++++++++++++++to 0.000464466
Heightened Def Con from 0.000464466 ++++++++++++++++++++++++to 0.000464469
Heightened Def Con from 0.000465333 +++++++++++++++++++++++++++++++to 0.000465334
Heightened Def Con from 0.000465334 ++++++++++++++++++++++++to 0.000465337
Heightened Def Con from 0.000466201 +++++++++++++++++++++++++++++++to 0.000466202
Heightened Def Con from 0.000466202 ++++++++++++++++++++++++to 0.000466205
Heightened Def Con from 0.000467069 +++++++++++++++++++++++++++++++to 0.00046707
Heightened Def Con from 0.00046707 ++++++++++++++++++++++++to 0.000467073
Heightened Def Con from 0.000467937 +++++++++++++++++++++++++++++++to 0.000467938
Heightened Def Con from 0.000467938 +++++++++++++++++++++++to 0.000467941
Heightened Def Con from 0.000468804 +++++++++++++++++++++++++++++++to 0.000468805
Heightened Def Con from 0.000468805 +++++++++++++++++++++++to 0.000468806
Heightened Def Con from 0.000469672 +++++++++++++++++++++++++++++++to 0.000469673
Heightened Def Con from 0.000469673 +++++++++++++++++++++++to 0.000469676
Heightened Def Con from 0.000470112 ++++++++++++++++++++to 0.000470113
Heightened Def Con from 0.00047055 to 0.000470551
Heightened Def Con from 0.000471417 +++++++++++++++++++++++++++++++to 0.000471418
Heightened Def Con from 0.000471418 ++++++++++++++++++++++++to 0.000471421
Heightened Def Con from 0.000472284 +++++++++++++++++++++++++++++++to 0.000472286
Heightened Def Con from 0.000472286 ++++++++++++++++++++++++to 0.000472289
Heightened Def Con from 0.000473152 +++++++++++++++++++++++++++++++to 0.000473153
Heightened Def Con from 0.000473153 ++++++++++++++++++++++++to 0.000473156
Heightened Def Con from 0.00047402 +++++++++++++++++++++++++++++++to 0.000474021
Heightened Def Con from 0.000474021 ++++++++++++++++++++++++to 0.000474024
Heightened Def Con from 0.000474888 +++++++++++++++++++++++++++++++to 0.000474889
Heightened Def Con from 0.000474889 ++++++++++++++++++++++++to 0.000474892
Heightened Def Con from 0.000475756 +++++++++++++++++++++++++++++++to 0.000475757
Heightened Def Con from 0.000475757 ++++++++++++++++++++++++to 0.00047576
Heightened Def Con from 0.000476624 +++++++++++++++++++++++++++++++to 0.000476625
Heightened Def Con from 0.000476625 ++++++++++++++++++++++++to 0.000476628
Heightened Def Con from 0.000477492 +++++++++++++++++++++++++++++++to 0.000477493
Heightened Def Con from 0.000477493 ++++++++++++++++++++++++to 0.000477496
Heightened Def Con from 0.00047836 +++++++++++++++++++++++++++++++to 0.000478361
Heightened Def Con from 0.000478361 ++++++++++++++++++++++++to 0.000478364
Heightened Def Con from 0.000479227 +++++++++++++++++++++++++++++++to 0.000479229
Heightened Def Con from 0.000479229 ++++++++++++++++++++++++to 0.000479232
Heightened Def Con from 0.000480095 +++++++++++++++++++++++++++++++to 0.000480096
Heightened Def Con from 0.000480096 ++++++++++++++++++++++++to 0.000480099
Heightened Def Con from 0.000480963 +++++++++++++++++++++++++++++++to 0.000480964
Heightened Def Con from 0.000480964 ++++++++++++++++++++++++to 0.000480967
Heightened Def Con from 0.000481831 +++++++++++++++++++++++++++++++to 0.000481832
Heightened Def Con from 0.000481832 ++++++++++++++++++++++++to 0.000481835
Heightened Def Con from 0.000482699 +++++++++++++++++++++++++++++++to 0.0004827
Heightened Def Con from 0.0004827 ++++++++++++++++++++++++to 0.000482703
Heightened Def Con from 0.000483567 +++++++++++++++++++++++++++++++to 0.000483568
Heightened Def Con from 0.000483568 ++++++++++++++++++++++++to 0.000483571
Heightened Def Con from 0.000484435 +++++++++++++++++++++++++++++++to 0.000484436
Heightened Def Con from 0.000484436 ++++++++++++++++++++++++to 0.000484439
Heightened Def Con from 0.000485303 +++++++++++++++++++++++++++++++to 0.000485304
Heightened Def Con from 0.000485304 ++++++++++++++++++++++++to 0.000485307
Heightened Def Con from 0.00048617 +++++++++++++++++++++++++++++++to 0.000486172
Heightened Def Con from 0.000486172 ++++++++++++++++++++++++to 0.000486175
Heightened Def Con from 0.000487038 +++++++++++++++++++++++to 0.000487038
Heightened Def Con from 0.000487909 +++++++++++++++++++++++to 0.000487909
Heightened Def Con from 0.000488781 ++++++++++++++++++++++to 0.000488781
Heightened Def Con from 0.000489652 to 0.000489652
Heightened Def Con from 0.000490523 to 0.000490523
Heightened Def Con from 0.00049659 +++++++++++++++++++++++++++++to 0.000496591
Heightened Def Con from 0.000497458 to 0.000497461
Heightened Def Con from 0.000502666 to 0.000502669
Heightened Def Con from 0.000504402 to 0.000504405
Heightened Def Con from 0.000506138 to 0.000506141
Heightened Def Con from 0.000507874 to 0.000507877
Heightened Def Con from 0.000510482 ++++++++++++++++++++to 0.000510482
Heightened Def Con from 0.000511353 +++++++++++++++++++++++++++++++to 0.000511354
Heightened Def Con from 0.000511354 ++++++++++++++++++++++++to 0.000511357
Heightened Def Con from 0.000512221 +++++++++++++++++++++++++++++++to 0.000512222
Heightened Def Con from 0.000512222 ++++++++++++++++++++++++to 0.000512225
Heightened Def Con from 0.000513088 +++++++++++++++++++++++++++++++to 0.00051309
Heightened Def Con from 0.00051309 ++++++++++++++++++++++++to 0.000513093
Heightened Def Con from 0.000513956 +++++++++++++++++++++++++++++++to 0.000513957
Heightened Def Con from 0.000513957 ++++++++++++++++++++++++to 0.00051396
Heightened Def Con from 0.000514824 +++++++++++++++++++++++++++++++to 0.000514825
Heightened Def Con from 0.000514825 ++++++++++++++++++++++++to 0.000514828
Heightened Def Con from 0.000515692 +++++++++++++++++++++++++++++++to 0.000515693
Heightened Def Con from 0.000515693 ++++++++++++++++++++++++to 0.000515696
Heightened Def Con from 0.00051656 +++++++++++++++++++++++++++++++to 0.000516561
Heightened Def Con from 0.000516561 ++++++++++++++++++++++++to 0.000516564
Heightened Def Con from 0.000517428 +++++++++++++++++++++++++++++++to 0.000517429
Heightened Def Con from 0.000517429 ++++++++++++++++++++++++to 0.000517432
Heightened Def Con from 0.000518296 +++++++++++++++++++++++++++++++to 0.000518297
Heightened Def Con from 0.000518297 ++++++++++++++++++++++++to 0.0005183
Heightened Def Con from 0.000519164 +++++++++++++++++++++++++++++++to 0.000519165
Heightened Def Con from 0.000519165 ++++++++++++++++++++++++to 0.000519168
Heightened Def Con from 0.000520031 +++++++++++++++++++++++++++++++to 0.000520033
Heightened Def Con from 0.000520033 ++++++++++++++++++++++++to 0.000520036
Heightened Def Con from 0.000520899 +++++++++++++++++++++++++++++++to 0.0005209
Heightened Def Con from 0.0005209 ++++++++++++++++++++++++to 0.000520903
Heightened Def Con from 0.000521767 +++++++++++++++++++++++++++++++to 0.000521768
Heightened Def Con from 0.000521768 ++++++++++++++++++++++++to 0.000521771
Heightened Def Con from 0.000522635 +++++++++++++++++++++++++++++++to 0.000522636
Heightened Def Con from 0.000522636 ++++++++++++++++++++++++to 0.000522639
Heightened Def Con from 0.000523503 +++++++++++++++++++++++++++++++to 0.000523504
Heightened Def Con from 0.000523504 ++++++++++++++++++++++++to 0.000523507
Heightened Def Con from 0.000524371 +++++++++++++++++++++++++++++++to 0.000524372
Heightened Def Con from 0.000524372 ++++++++++++++++++++++++to 0.000524375
Heightened Def Con from 0.000525239 +++++++++++++++++++++++++++++++to 0.00052524
Heightened Def Con from 0.00052524 ++++++++++++++++++++++++to 0.000525243
Heightened Def Con from 0.000526107 +++++++++++++++++++++++++++++++to 0.000526108
Heightened Def Con from 0.000526108 ++++++++++++++++++++++++to 0.000526111
Heightened Def Con from 0.000526974 +++++++++++++++++++++++++++++++to 0.000526976
Heightened Def Con from 0.000526976 ++++++++++++++++++++++++to 0.000526979
Heightened Def Con from 0.000527842 +++++++++++++++++++++++++++++++to 0.000527843
Heightened Def Con from 0.000527843 ++++++++++++++++++++++++to 0.000527846
Heightened Def Con from 0.00052871 +++++++++++++++++++++++++++++++to 0.000528711
Heightened Def Con from 0.000528711 ++++++++++++++++++++++++to 0.000528714
Heightened Def Con from 0.000529578 +++++++++++++++++++++++++++++++to 0.000529579
Heightened Def Con from 0.000529579 ++++++++++++++++++++++++to 0.000529582
Heightened Def Con from 0.000530446 +++++++++++++++++++++++++++++++to 0.000530447
Heightened Def Con from 0.000530447 ++++++++++++++++++++++++to 0.00053045
Heightened Def Con from 0.000531314 +++++++++++++++++++++++++++++++to 0.000531315
Heightened Def Con from 0.000531315 ++++++++++++++++++++++++to 0.000531318
Heightened Def Con from 0.000532182 +++++++++++++++++++++++++++++++to 0.000532183
Heightened Def Con from 0.000532183 ++++++++++++++++++++++++to 0.000532186
Heightened Def Con from 0.000533049 +++++++++++++++++++++++++++++++to 0.000533051
Heightened Def Con from 0.000533051 ++++++++++++++++++++++++to 0.000533054
Heightened Def Con from 0.000533917 +++++++++++++++++++++++++++++++to 0.000533918
Heightened Def Con from 0.000533918 ++++++++++++++++++++++++to 0.000533921
Heightened Def Con from 0.000534785 +++++++++++++++++++++++++++++++to 0.000534786
Heightened Def Con from 0.000534786 ++++++++++++++++++++++++to 0.000534789
Heightened Def Con from 0.000535653 +++++++++++++++++++++++++++++++to 0.000535654
Heightened Def Con from 0.000535654 ++++++++++++++++++++++++to 0.000535657
Heightened Def Con from 0.000536521 +++++++++++++++++++++++++++++++to 0.000536522
Heightened Def Con from 0.000536522 ++++++++++++++++++++++++to 0.000536525
Heightened Def Con from 0.000536962 ++++++++++++++++++++++++++++to 0.000536963
Heightened Def Con from 0.000537412 +++++++++++++++++++++++++++++++to 0.000537413
Heightened Def Con from 0.000537413 ++++++++++++++++++++++++to 0.000537416
Heightened Def Con from 0.00053828 +++++++++++++++++++++++++++++++to 0.000538281
Heightened Def Con from 0.000538281 ++++++++++++++++++++++++to 0.000538284
Heightened Def Con from 0.000539147 +++++++++++++++++++++++++++++++to 0.000539149
Heightened Def Con from 0.000539149 ++++++++++++++++++++++++to 0.000539152
Heightened Def Con from 0.000540015 +++++++++++++++++++++++++++++++to 0.000540016
Heightened Def Con from 0.000540016 ++++++++++++++++++++++++to 0.000540019
Heightened Def Con from 0.000540883 +++++++++++++++++++++++++++++++to 0.000540884
Heightened Def Con from 0.000540884 ++++++++++++++++++++++++to 0.000540887
Heightened Def Con from 0.000541751 +++++++++++++++++++++++++++++++to 0.000541752
Heightened Def Con from 0.000541752 ++++++++++++++++++++++++to 0.000541755
Heightened Def Con from 0.000542619 +++++++++++++++++++++++++++++++to 0.00054262
Heightened Def Con from 0.00054262 ++++++++++++++++++++++++to 0.000542623
Heightened Def Con from 0.000543487 +++++++++++++++++++++++++++++++to 0.000543488
Heightened Def Con from 0.000543488 ++++++++++++++++++++++++to 0.000543491
Heightened Def Con from 0.000544355 +++++++++++++++++++++++++++++++to 0.000544356
Heightened Def Con from 0.000544356 ++++++++++++++++++++++++to 0.000544359
Heightened Def Con from 0.000545223 +++++++++++++++++++++++++++++++to 0.000545224
Heightened Def Con from 0.000545224 ++++++++++++++++++++++++to 0.000545227
Heightened Def Con from 0.00054609 +++++++++++++++++++++++++++++++to 0.000546092
Heightened Def Con from 0.000546092 ++++++++++++++++++++++++to 0.000546095
Heightened Def Con from 0.000546958 +++++++++++++++++++++++++++++++to 0.000546959
Heightened Def Con from 0.000546959 ++++++++++++++++++++++++to 0.000546962
Heightened Def Con from 0.000547826 +++++++++++++++++++++++++++++++to 0.000547827
Heightened Def Con from 0.000547827 ++++++++++++++++++++++++to 0.00054783
Heightened Def Con from 0.000548694 +++++++++++++++++++++++++++++++to 0.000548695
Heightened Def Con from 0.000548695 ++++++++++++++++++++++++to 0.000548698
Heightened Def Con from 0.000549562 +++++++++++++++++++++++++++++++to 0.000549563
Heightened Def Con from 0.000549563 ++++++++++++++++++++++++to 0.000549566
Heightened Def Con from 0.00055043 +++++++++++++++++++++++++++++++to 0.000550431
Heightened Def Con from 0.000550431 ++++++++++++++++++++++++to 0.000550434
Heightened Def Con from 0.000551298 +++++++++++++++++++++++to 0.000551298
Heightened Def Con from 0.000552169 +++++++++++++++++++++++to 0.000552169
Heightened Def Con from 0.00055304 ++++++++++++++++++++++to 0.00055304
Heightened Def Con from 0.000553911 to 0.000553911
Heightened Def Con from 0.000554782 to 0.000554782
Heightened Def Con from 0.000557387 to 0.000557387
Heightened Def Con from 0.000558254 to 0.000558257
Heightened Def Con from 0.00055999 to 0.00055999
Heightened Def Con from 0.000563426 +++++++++++++++++++++++to 0.000563427
Heightened Def Con from 0.00057206 to 0.000572063
Heightened Def Con from 0.000573796 to 0.000573799
Heightened Def Con from 0.000575532 to 0.000575535
Heightened Def Con from 0.000577268 to 0.000577268
Heightened Def Con from 0.000579002 to 0.000579005
Heightened Def Con from 0.000580741 +++++++++++++++++++++to 0.000580741
Heightened Def Con from 0.000581612 +++++++++++++++++++++++++++++++to 0.000581613
Heightened Def Con from 0.000581613 ++++++++++++++++++++++++to 0.000581616
Heightened Def Con from 0.00058248 +++++++++++++++++++++++++++++++to 0.000582481
Heightened Def Con from 0.000582481 ++++++++++++++++++++++++to 0.000582484
Heightened Def Con from 0.000583348 +++++++++++++++++++++++++++++++to 0.000583349
Heightened Def Con from 0.000583349 ++++++++++++++++++++++++to 0.000583352
Heightened Def Con from 0.000584216 +++++++++++++++++++++++++++++++to 0.000584217
Heightened Def Con from 0.000584217 ++++++++++++++++++++++++to 0.00058422
Heightened Def Con from 0.000585083 +++++++++++++++++++++++++++++++to 0.000585085
Heightened Def Con from 0.000585085 ++++++++++++++++++++++++to 0.000585088
Heightened Def Con from 0.000585951 +++++++++++++++++++++++++++++++to 0.000585952
Heightened Def Con from 0.000585952 ++++++++++++++++++++++++to 0.000585955
Heightened Def Con from 0.000586819 +++++++++++++++++++++++++++++++to 0.00058682
Heightened Def Con from 0.00058682 ++++++++++++++++++++++++to 0.000586823
Heightened Def Con from 0.000587687 +++++++++++++++++++++++++++++++to 0.000587688
Heightened Def Con from 0.000587688 ++++++++++++++++++++++++to 0.000587691
Heightened Def Con from 0.000588555 +++++++++++++++++++++++++++++++to 0.000588556
Heightened Def Con from 0.000588556 ++++++++++++++++++++++++to 0.000588559
Heightened Def Con from 0.000589423 +++++++++++++++++++++++++++++++to 0.000589424
Heightened Def Con from 0.000589424 ++++++++++++++++++++++++to 0.000589427
Heightened Def Con from 0.000590291 +++++++++++++++++++++++++++++++to 0.000590292
Heightened Def Con from 0.000590292 ++++++++++++++++++++++++to 0.000590295
Heightened Def Con from 0.000591158 +++++++++++++++++++++++++++++++to 0.00059116
Heightened Def Con from 0.00059116 ++++++++++++++++++++++++to 0.000591163
Heightened Def Con from 0.000592026 +++++++++++++++++++++++++++++++to 0.000592027
Heightened Def Con from 0.000592027 ++++++++++++++++++++++++to 0.00059203
Heightened Def Con from 0.000592894 +++++++++++++++++++++++++++++++to 0.000592895
Heightened Def Con from 0.000592895 ++++++++++++++++++++++++to 0.000592898
Heightened Def Con from 0.000593762 +++++++++++++++++++++++++++++++to 0.000593763
Heightened Def Con from 0.000593763 ++++++++++++++++++++++++to 0.000593766
Heightened Def Con from 0.00059463 +++++++++++++++++++++++++++++++to 0.000594631
Heightened Def Con from 0.000594631 ++++++++++++++++++++++++to 0.000594634
Heightened Def Con from 0.000595498 +++++++++++++++++++++++++++++++to 0.000595499
Heightened Def Con from 0.000595499 ++++++++++++++++++++++++to 0.000595502
Heightened Def Con from 0.000596366 +++++++++++++++++++++++++++++++to 0.000596367
Heightened Def Con from 0.000596367 ++++++++++++++++++++++++to 0.00059637
Heightened Def Con from 0.000597234 +++++++++++++++++++++++++++++++to 0.000597235
Heightened Def Con from 0.000597235 ++++++++++++++++++++++++to 0.000597238
Heightened Def Con from 0.000598101 +++++++++++++++++++++++++++++++to 0.000598103
Heightened Def Con from 0.000598103 ++++++++++++++++++++++++to 0.000598106
Heightened Def Con from 0.000598969 +++++++++++++++++++++++++++++++to 0.00059897
Heightened Def Con from 0.00059897 ++++++++++++++++++++++++to 0.000598973
Heightened Def Con from 0.000599837 +++++++++++++++++++++++++++++++to 0.000599838
Heightened Def Con from 0.000599838 ++++++++++++++++++++++++to 0.000599841
Heightened Def Con from 0.000600705 +++++++++++++++++++++++++++++++to 0.000600706
Heightened Def Con from 0.000600706 ++++++++++++++++++++++++to 0.000600709
Heightened Def Con from 0.000601573 +++++++++++++++++++++++++++++++to 0.000601574
Heightened Def Con from 0.000601574 ++++++++++++++++++++++++to 0.000601577
Heightened Def Con from 0.000602441 +++++++++++++++++++++++++++++++to 0.000602442
Heightened Def Con from 0.000602442 ++++++++++++++++++++++++to 0.000602445
Heightened Def Con from 0.0006033 ++++++++++++++++++++++++++++to 0.000603302
Heightened Def Con from 0.00060417 +++++++++++++++++++++++++++++++to 0.000604171
Heightened Def Con from 0.000604171 ++++++++++++++++++++++++to 0.000604174
Heightened Def Con from 0.000605038 +++++++++++++++++++++++++++++++to 0.000605039
Heightened Def Con from 0.000605039 ++++++++++++++++++++++++to 0.000605042
Heightened Def Con from 0.000605906 +++++++++++++++++++++++++++++++to 0.000605907
Heightened Def Con from 0.000605907 ++++++++++++++++++++++++to 0.00060591
Heightened Def Con from 0.000606774 +++++++++++++++++++++++++++++++to 0.000606775
Heightened Def Con from 0.000606775 ++++++++++++++++++++++++to 0.000606778
Heightened Def Con from 0.000607642 +++++++++++++++++++++++++++++++to 0.000607643
Heightened Def Con from 0.000607643 ++++++++++++++++++++++++to 0.000607646
Heightened Def Con from 0.00060851 +++++++++++++++++++++++++++++++to 0.000608511
Heightened Def Con from 0.000608511 ++++++++++++++++++++++++to 0.000608514
Heightened Def Con from 0.000609377 +++++++++++++++++++++++++++++++to 0.000609379
Heightened Def Con from 0.000609379 ++++++++++++++++++++++++to 0.000609382
Heightened Def Con from 0.000610245 +++++++++++++++++++++++++++++++to 0.000610246
Heightened Def Con from 0.000610246 ++++++++++++++++++++++++to 0.000610249
Heightened Def Con from 0.000611113 +++++++++++++++++++++++++++++++to 0.000611114
Heightened Def Con from 0.000611114 ++++++++++++++++++++++++to 0.000611117
Heightened Def Con from 0.000611981 +++++++++++++++++++++++++++++++to 0.000611982
Heightened Def Con from 0.000611982 ++++++++++++++++++++++++to 0.000611985
Heightened Def Con from 0.000612849 +++++++++++++++++++++++++++++++to 0.00061285
Heightened Def Con from 0.00061285 ++++++++++++++++++++++++to 0.000612853
Heightened Def Con from 0.000613717 +++++++++++++++++++++++++++++++to 0.000613718
Heightened Def Con from 0.000613718 ++++++++++++++++++++++++to 0.000613721
Heightened Def Con from 0.000614585 +++++++++++++++++++++++++++++++to 0.000614586
Heightened Def Con from 0.000614586 ++++++++++++++++++++++++to 0.000614589
Heightened Def Con from 0.000615453 +++++++++++++++++++++++++++++++to 0.000615454
Heightened Def Con from 0.000615454 ++++++++++++++++++++++++to 0.000615457
Heightened Def Con from 0.00061632 +++++++++++++++++++++++to 0.00061632
Heightened Def Con from 0.000617192 ++++++++++++++++++++++to 0.000617192
Heightened Def Con from 0.000618063 ++++++++++++++++++++to 0.000618063
Heightened Def Con from 0.000618934 to 0.000618934
Heightened Def Con from 0.000620671 to 0.000620674
Heightened Def Con from 0.000631003 to 0.000631003
Heightened Def Con from 0.000631874 to 0.000631874
Heightened Def Con from 0.000639621 to 0.000639621
Heightened Def Con from 0.00064049 to 0.00064049
Heightened Def Con from 0.000642224 to 0.000642227
Heightened Def Con from 0.00064396 to 0.000643963
Heightened Def Con from 0.000645696 to 0.000645699
Heightened Def Con from 0.000647432 to 0.000647435
Heightened Def Con from 0.000650903 to 0.000650906
Heightened Def Con from 0.000651772 ++++++++++++++++++++++to 0.000651772
Heightened Def Con from 0.000652643 +++++++++++++++++++++++++++++++to 0.000652644
Heightened Def Con from 0.000652644 ++++++++++++++++++++++++to 0.000652647
Heightened Def Con from 0.000653511 +++++++++++++++++++++++++++++++to 0.000653512
Heightened Def Con from 0.000653512 ++++++++++++++++++++++++to 0.000653515
Heightened Def Con from 0.000654379 +++++++++++++++++++++++++++++++to 0.00065438
Heightened Def Con from 0.00065438 ++++++++++++++++++++++++to 0.000654383
Heightened Def Con from 0.000655247 +++++++++++++++++++++++++++++++to 0.000655248
Heightened Def Con from 0.000655248 ++++++++++++++++++++++++to 0.000655251
Heightened Def Con from 0.000656115 +++++++++++++++++++++++++++++++to 0.000656116
Heightened Def Con from 0.000656116 ++++++++++++++++++++++++to 0.000656119
Heightened Def Con from 0.000656983 +++++++++++++++++++++++++++++++to 0.000656984
Heightened Def Con from 0.000656984 ++++++++++++++++++++++++to 0.000656987
Heightened Def Con from 0.00065785 +++++++++++++++++++++++++++++++to 0.000657852
Heightened Def Con from 0.000657852 ++++++++++++++++++++++++to 0.000657855
Heightened Def Con from 0.000658718 +++++++++++++++++++++++++++++++to 0.000658719
Heightened Def Con from 0.000658719 ++++++++++++++++++++++++to 0.000658722
Heightened Def Con from 0.000659586 +++++++++++++++++++++++++++++++to 0.000659587
Heightened Def Con from 0.000659587 ++++++++++++++++++++++++to 0.00065959
Heightened Def Con from 0.000660454 +++++++++++++++++++++++++++++++to 0.000660455
Heightened Def Con from 0.000660455 ++++++++++++++++++++++++to 0.000660458
Heightened Def Con from 0.000661322 +++++++++++++++++++++++++++++++to 0.000661323
Heightened Def Con from 0.000661323 ++++++++++++++++++++++++to 0.000661326
Heightened Def Con from 0.00066219 +++++++++++++++++++++++++++++++to 0.000662191
Heightened Def Con from 0.000662191 ++++++++++++++++++++++++to 0.000662194
Heightened Def Con from 0.000663058 +++++++++++++++++++++++++++++++to 0.000663059
Heightened Def Con from 0.000663059 ++++++++++++++++++++++++to 0.000663062
Heightened Def Con from 0.000663926 +++++++++++++++++++++++++++++++to 0.000663927
Heightened Def Con from 0.000663927 ++++++++++++++++++++++++to 0.00066393
Heightened Def Con from 0.000664793 +++++++++++++++++++++++++++++++to 0.000664795
Heightened Def Con from 0.000664795 ++++++++++++++++++++++++to 0.000664798
Heightened Def Con from 0.000665661 +++++++++++++++++++++++++++++++to 0.000665662
Heightened Def Con from 0.000665662 ++++++++++++++++++++++++to 0.000665665
Heightened Def Con from 0.000666529 +++++++++++++++++++++++++++++++to 0.00066653
Heightened Def Con from 0.00066653 ++++++++++++++++++++++++to 0.000666533
Heightened Def Con from 0.000667397 +++++++++++++++++++++++++++++++to 0.000667398
Heightened Def Con from 0.000667398 ++++++++++++++++++++++++to 0.000667401
Heightened Def Con from 0.000668265 +++++++++++++++++++++++++++++++to 0.000668266
Heightened Def Con from 0.000668266 ++++++++++++++++++++++++to 0.000668269
Heightened Def Con from 0.000669133 +++++++++++++++++++++++++++++++to 0.000669134
Heightened Def Con from 0.000669134 ++++++++++++++++++++++++to 0.000669137
Heightened Def Con from 0.00067 +++++++++++++++++++++++++++++++to 0.000670001
Heightened Def Con from 0.000670001 ++++++++++++++++++++++++to 0.000670004
Heightened Def Con from 0.000670868 +++++++++++++++++++++++++++++++to 0.000670869
Heightened Def Con from 0.000670869 ++++++++++++++++++++++++to 0.000670872
Heightened Def Con from 0.000671736 +++++++++++++++++++++++++++++++to 0.000671737
Heightened Def Con from 0.000671737 ++++++++++++++++++++++++to 0.00067174
Heightened Def Con from 0.000672604 +++++++++++++++++++++++++++++++to 0.000672605
[...]
Heightened Def Con from 0.00478137 to 0.00478137
Heightened Def Con from 0.0047818 ++++++++++++++++++++++++to 0.0047818
Heightened Def Con from 0.00478222 to 0.00478222
Heightened Def Con from 0.00478306 +++++++++++++++++++++++to 0.00478307
Heightened Def Con from 0.00478391 to 0.00478391
Heightened Def Con from 0.00478391 to 0.00478391
Heightened Def Con from 0.00478476 to 0.00478476
Heightened Def Con from 0.00478476 to 0.00478476
Heightened Def Con from 0.0047856 to 0.0047856
Heightened Def Con from 0.0047856 to 0.0047856
Heightened Def Con from 0.00478645 to 0.00478645
Heightened Def Con from 0.00478645 to 0.00478645
Heightened Def Con from 0.00478729 +++++++++++++++++++++++to 0.0047873
Heightened Def Con from 0.00478814 to 0.00478814
Heightened Def Con from 0.004789 +++++++++++++++++++++++++++++++to 0.004789
Heightened Def Con from 0.004789 +++++++++++++++++++++++++to 0.004789
Heightened Def Con from 0.00478985 +++++++++++++++++++++++to 0.00478985
Heightened Def Con from 0.00479069 +++++++++++++++++++++++to 0.00479069
Heightened Def Con from 0.00479154 +++++++++++++++++++++++to 0.00479154
Heightened Def Con from 0.00479238 +++++++++++++++++++++++to 0.00479238
Heightened Def Con from 0.00479323 +++++++++++++++++++++++to 0.00479323
Heightened Def Con from 0.00479407 +++++++++++++++++++++++to 0.00479408
Heightened Def Con from 0.00479492 +++++++++++++++++++++++to 0.00479492
Heightened Def Con from 0.00479577 +++++++++++++++++++++++to 0.00479577
Heightened Def Con from 0.00479661 to 0.00479661
Heightened Def Con from 0.00479704 +++++++++++++++++++++++to 0.00479704
Heightened Def Con from 0.00479748 to 0.00479748
Heightened Def Con from 0.00479833 to 0.00479833
Heightened Def Con from 0.00479833 +++++++++++++++++++++++to 0.00479833
Heightened Def Con from 0.00480511 to 0.00480511
Heightened Def Con from 0.00480595 +++++++++++++++++++++++to 0.00480595
Heightened Def Con from 0.0048068 +++++++++++++++++++++++to 0.0048068
Heightened Def Con from 0.00480764 +++++++++++++++++++++++to 0.00480764
Heightened Def Con from 0.00480849 +++++++++++++++++++++++to 0.00480849
Heightened Def Con from 0.00480933 to 0.00480934
Heightened Def Con from 0.00481018 to 0.00481018
Heightened Def Con from 0.00481103 +++++++++++++++++++++++to 0.00481103
Heightened Def Con from 0.00481187 ++++++++++++++++++++++++to 0.00481188
Heightened Def Con from 0.00481272 ++++++++++++++++++++++++to 0.00481272
Heightened Def Con from 0.00481356 to 0.00481357
Heightened Def Con from 0.00481441 to 0.00481441
Heightened Def Con from 0.00481441 to 0.00481441
Heightened Def Con from 0.00481526 to 0.00481526
Heightened Def Con from 0.00481526 ++++++++++++++++++++++++to 0.00481526
Heightened Def Con from 0.0048161 to 0.0048161
Heightened Def Con from 0.00481695 to 0.00481695
Heightened Def Con from 0.00481695 to 0.00481695
Heightened Def Con from 0.00481779 to 0.00481779
Heightened Def Con from 0.00481779 to 0.00481779
Heightened Def Con from 0.00481864 to 0.00481864
Heightened Def Con from 0.00481864 to 0.00481864
Heightened Def Con from 0.00481948 to 0.00481948
Heightened Def Con from 0.00481948 to 0.00481948
Heightened Def Con from 0.00482033 ++++++++++++++++++++++++++++++to 0.00482033
Heightened Def Con from 0.00482033 +++++++++++++++++++++++++to 0.00482034
Heightened Def Con from 0.00482076 ++++++++++++++++++++++++to 0.00482076
Heightened Def Con from 0.00482118 to 0.00482118
Heightened Def Con from 0.0048216 ++++++++++++++++++++++++to 0.00482161
Heightened Def Con from 0.00482203 to 0.00482203
Heightened Def Con from 0.00482287 +++++++++++++++++++++++to 0.00482287
Heightened Def Con from 0.00482372 to 0.00482372
Heightened Def Con from 0.00482372 to 0.00482372
Heightened Def Con from 0.00482456 to 0.00482456
Heightened Def Con from 0.00482456 to 0.00482456
Heightened Def Con from 0.00482541 to 0.00482541
Heightened Def Con from 0.00482541 to 0.00482541
Heightened Def Con from 0.00482625 to 0.00482625
Heightened Def Con from 0.00482625 to 0.00482626
Heightened Def Con from 0.0048271 ++++++++++++++++++++++++to 0.0048271
Heightened Def Con from 0.00482795 +++++++++++++++++++++++to 0.00482795
Heightened Def Con from 0.00482879 ++++++++++++++++++++++++to 0.00482879
Heightened Def Con from 0.00482965 +++++++++++++++++++++++++++++++to 0.00482965
Heightened Def Con from 0.00482965 +++++++++++++++++++++++++to 0.00482965
Heightened Def Con from 0.0048305 +++++++++++++++++++++++to 0.0048305
Heightened Def Con from 0.00483135 to 0.00483135
Heightened Def Con from 0.00483219 +++++++++++++++++++++++to 0.00483219
Heightened Def Con from 0.00483304 +++++++++++++++++++++++to 0.00483304
Heightened Def Con from 0.00483388 +++++++++++++++++++++++to 0.00483388
Heightened Def Con from 0.00483473 +++++++++++++++++++++++to 0.00483473
Heightened Def Con from 0.00483557 +++++++++++++++++++++++to 0.00483557
Heightened Def Con from 0.00483642 +++++++++++++++++++++++to 0.00483642
Heightened Def Con from 0.00484066 ++++++++++++++++++++++++++++++to 0.00484066
Heightened Def Con from 0.00484066 +++++++++++++++++++++++++to 0.00484067
Heightened Def Con from 0.00484151 to 0.00484151
Heightened Def Con from 0.00484194 to 0.00484194
Heightened Def Con from 0.00484238 to 0.00484238
Heightened Def Con from 0.00484323 to 0.00484323
Heightened Def Con from 0.00484323 +++++++++++++++++++++++to 0.00484323
Heightened Def Con from 0.00484407 +++++++++++++++++++++++to 0.00484407
Heightened Def Con from 0.00484492 +++++++++++++++++++++++to 0.00484492
Heightened Def Con from 0.00484576 +++++++++++++++++++++++to 0.00484576
Heightened Def Con from 0.00484661 +++++++++++++++++++++++to 0.00484661
Heightened Def Con from 0.00484745 +++++++++++++++++++++++to 0.00484745
Heightened Def Con from 0.0048483 +++++++++++++++++++++++to 0.0048483
Heightened Def Con from 0.00484915 to 0.00484915
Heightened Def Con from 0.00484999 to 0.00484999
Heightened Def Con from 0.00485084 +++++++++++++++++++++++to 0.00485084
Heightened Def Con from 0.00485168 ++++++++++++++++++++++++to 0.00485169
Heightened Def Con from 0.00485253 ++++++++++++++++++++++++to 0.00485253
Heightened Def Con from 0.00485337 to 0.00485338
Heightened Def Con from 0.00485422 to 0.00485422
Heightened Def Con from 0.00485422 to 0.00485422
Heightened Def Con from 0.00485507 to 0.00485507
Heightened Def Con from 0.00485507 to 0.00485507
Heightened Def Con from 0.00485591 to 0.00485591
Heightened Def Con from 0.00485591 to 0.00485591
Heightened Def Con from 0.00485676 to 0.00485676
Heightened Def Con from 0.0048576 to 0.0048576
Heightened Def Con from 0.0048576 ++++++++++++++++++++++++to 0.00485761
Heightened Def Con from 0.00485845 to 0.00485845
Heightened Def Con from 0.00485845 to 0.00485845
Heightened Def Con from 0.00485929 to 0.00485929
Heightened Def Con from 0.00485929 to 0.0048593
Heightened Def Con from 0.00486014 ++++++++++++++++++++++++++++++to 0.00486014
Heightened Def Con from 0.00486014 +++++++++++++++++++++++++to 0.00486015
Heightened Def Con from 0.00486057 ++++++++++++++++++++++++to 0.00486057
Heightened Def Con from 0.00486099 to 0.00486099
Heightened Def Con from 0.00486141 ++++++++++++++++++++++++to 0.00486141
Heightened Def Con from 0.00486184 to 0.00486184
Heightened Def Con from 0.00486268 +++++++++++++++++++++++to 0.00486268
Heightened Def Con from 0.00486353 to 0.00486353
Heightened Def Con from 0.00486353 to 0.00486353
Heightened Def Con from 0.00486437 to 0.00486437
Heightened Def Con from 0.00486437 to 0.00486437
Heightened Def Con from 0.00486522 to 0.00486522
Heightened Def Con from 0.00486522 to 0.00486522
Heightened Def Con from 0.00486606 to 0.00486606
Heightened Def Con from 0.00486606 to 0.00486606
Heightened Def Con from 0.00486691 to 0.00486691
Heightened Def Con from 0.00486691 to 0.00486691
Heightened Def Con from 0.00486776 +++++++++++++++++++++++to 0.00486776
Heightened Def Con from 0.0048686 ++++++++++++++++++++++++to 0.0048686
Heightened Def Con from 0.00486946 +++++++++++++++++++++++++++++++to 0.00486946
Heightened Def Con from 0.00486946 +++++++++++++++++++++++++to 0.00486946
Heightened Def Con from 0.00487031 +++++++++++++++++++++++to 0.00487031
Heightened Def Con from 0.00487116 to 0.00487116
Heightened Def Con from 0.004872 +++++++++++++++++++++++to 0.004872
Heightened Def Con from 0.00487285 +++++++++++++++++++++++to 0.00487285
Heightened Def Con from 0.00487369 +++++++++++++++++++++++to 0.00487369
Heightened Def Con from 0.00487454 +++++++++++++++++++++++to 0.00487454
Heightened Def Con from 0.00487538 +++++++++++++++++++++++to 0.00487538
Heightened Def Con from 0.00487623 +++++++++++++++++++++++to 0.00487623
Heightened Def Con from 0.00488047 ++++++++++++++++++++++++++++++to 0.00488047
Heightened Def Con from 0.00488047 +++++++++++++++++++++++++to 0.00488048
Heightened Def Con from 0.00488132 to 0.00488132
Heightened Def Con from 0.00488174 to 0.00488174
Heightened Def Con from 0.00488304 +++++++++++++++++++++++to 0.00488304
Heightened Def Con from 0.00488389 +++++++++++++++++++++++to 0.00488389
Heightened Def Con from 0.00488473 +++++++++++++++++++++++to 0.00488473
Heightened Def Con from 0.00488558 +++++++++++++++++++++++to 0.00488558
Heightened Def Con from 0.00488642 +++++++++++++++++++++++to 0.00488642
Heightened Def Con from 0.00488727 +++++++++++++++++++++++to 0.00488727
Heightened Def Con from 0.00488811 +++++++++++++++++++++++to 0.00488811
Heightened Def Con from 0.00488896 to 0.00488896
Heightened Def Con from 0.00488981 to 0.00488981
Heightened Def Con from 0.00489065 +++++++++++++++++++++++to 0.00489065
Heightened Def Con from 0.0048915 ++++++++++++++++++++++++to 0.0048915
Heightened Def Con from 0.00489234 ++++++++++++++++++++++++to 0.00489235
Heightened Def Con from 0.00489319 to 0.00489319
Heightened Def Con from 0.00489403 to 0.00489403
Heightened Def Con from 0.00489403 to 0.00489404
Heightened Def Con from 0.00489488 to 0.00489488
Heightened Def Con from 0.00489488 to 0.00489488
Heightened Def Con from 0.00489573 to 0.00489573
Heightened Def Con from 0.00489573 to 0.00489573
Heightened Def Con from 0.00489657 to 0.00489657
Heightened Def Con from 0.00489657 to 0.00489657
Heightened Def Con from 0.00489742 to 0.00489742
Heightened Def Con from 0.00489742 to 0.00489742
Heightened Def Con from 0.00489826 to 0.00489826
Heightened Def Con from 0.00489826 to 0.00489827
Heightened Def Con from 0.00489911 ++++++++++++++++++++++++to 0.00489911
Heightened Def Con from 0.00489996 to 0.00489996
Heightened Def Con from 0.00489996 ++++++++++++++++++++++++++++++to 0.00489997
Heightened Def Con from 0.00489997 +++++++++++++++++++++++++to 0.00489997
Heightened Def Con from 0.00490039 to 0.00490039
Heightened Def Con from 0.00490165 ++++++++++++++++++++++++to 0.00490165
Heightened Def Con from 0.0049025 to 0.0049025
Heightened Def Con from 0.00490334 to 0.00490334
Heightened Def Con from 0.00490334 to 0.00490334
Heightened Def Con from 0.00490419 to 0.00490419
Heightened Def Con from 0.00490419 to 0.00490419
Heightened Def Con from 0.00490504 to 0.00490504
Heightened Def Con from 0.00490504 to 0.00490504
Heightened Def Con from 0.00490588 to 0.00490588
Heightened Def Con from 0.00490588 to 0.00490588
Heightened Def Con from 0.00490673 to 0.00490673
Heightened Def Con from 0.00490673 to 0.00490673
Heightened Def Con from 0.00490757 +++++++++++++++++++++++to 0.00490757
Heightened Def Con from 0.00490842 ++++++++++++++++++++++++to 0.00490842
Heightened Def Con from 0.00490928 +++++++++++++++++++++++++++++++to 0.00490928
Heightened Def Con from 0.00490928 +++++++++++++++++++++++++to 0.00490928
Heightened Def Con from 0.00491013 to 0.00491013
Heightened Def Con from 0.00491098 +++++++++++++++++++++++++++++++to 0.00491099
Heightened Def Con from 0.00491099 +++++++++++++++++++++++++to 0.00491099
Heightened Def Con from 0.00491183 +++++++++++++++++++++++to 0.00491183
Heightened Def Con from 0.00491268 +++++++++++++++++++++++to 0.00491268
Heightened Def Con from 0.00491352 +++++++++++++++++++++++to 0.00491352
Heightened Def Con from 0.00491437 +++++++++++++++++++++++to 0.00491437
Heightened Def Con from 0.00491521 +++++++++++++++++++++++to 0.00491521
Heightened Def Con from 0.00491606 +++++++++++++++++++++++to 0.00491606
Heightened Def Con from 0.0049169 to 0.0049169
Heightened Def Con from 0.00491733 +++++++++++++++++++++++to 0.00491733
Heightened Def Con from 0.00491777 to 0.00491777
Heightened Def Con from 0.00491862 to 0.00491862
Heightened Def Con from 0.00491862 +++++++++++++++++++++++to 0.00491862
Heightened Def Con from 0.00492032 ++++++++++++++++++++++++++++to 0.00492032
Heightened Def Con from 0.00492116 to 0.00492116
Heightened Def Con from 0.00492288 to 0.00492288
Heightened Def Con from 0.00492372 +++++++++++++++++++++++to 0.00492372
Heightened Def Con from 0.00492457 +++++++++++++++++++++++to 0.00492457
Heightened Def Con from 0.00492541 +++++++++++++++++++++++to 0.00492542
Heightened Def Con from 0.00492626 +++++++++++++++++++++++to 0.00492626
Heightened Def Con from 0.0049271 +++++++++++++++++++++++to 0.00492711
Heightened Def Con from 0.00492795 +++++++++++++++++++++++to 0.00492795
Heightened Def Con from 0.00492964 +++++++++++++++++++++++to 0.00492964
Heightened Def Con from 0.00493049 ++++++++++++++++++++++++to 0.00493049
Heightened Def Con from 0.00493133 +++++++++++++++++++++++to 0.00493133
Heightened Def Con from 0.00493218 ++++++++++++++++++++++++to 0.00493218
Heightened Def Con from 0.00493302 ++++++++++++++++++++++++to 0.00493302
Heightened Def Con from 0.00493387 to 0.00493387
Heightened Def Con from 0.00493471 to 0.00493471
Heightened Def Con from 0.00493471 ++++++++++++++++++++++++to 0.00493471
Heightened Def Con from 0.00493556 to 0.00493556
Heightened Def Con from 0.00493556 +++++++++++++++++++++++to 0.00493556
Heightened Def Con from 0.0049364 to 0.0049364
Heightened Def Con from 0.0049364 to 0.0049364
Heightened Def Con from 0.00493725 to 0.00493725
Heightened Def Con from 0.00493725 ++++++++++++++++++++++++to 0.00493725
Heightened Def Con from 0.00493809 +++++++++++++++++++++++to 0.00493809
Heightened Def Con from 0.00493894 to 0.00493894
Heightened Def Con from 0.00493894 to 0.00493894
Heightened Def Con from 0.00493978 ++++++++++++++++++++++++to 0.00493979
Heightened Def Con from 0.00494063 to 0.00494063
Heightened Def Con from 0.00494147 to 0.00494147
Heightened Def Con from 0.00494147 to 0.00494148
Heightened Def Con from 0.00494232 to 0.00494232
Heightened Def Con from 0.00494232 to 0.00494232
Heightened Def Con from 0.00494317 to 0.00494317
Heightened Def Con from 0.00494317 to 0.00494317
Heightened Def Con from 0.00494401 to 0.00494401
Heightened Def Con from 0.00494401 to 0.00494401
Heightened Def Con from 0.00494486 to 0.00494486
Heightened Def Con from 0.00494486 to 0.00494486
Heightened Def Con from 0.0049457 to 0.0049457
Heightened Def Con from 0.0049457 to 0.00494571
Heightened Def Con from 0.00494655 to 0.00494655
Heightened Def Con from 0.00494655 to 0.00494655
Heightened Def Con from 0.0049474 ++++++++++++++++++++++++to 0.0049474
Heightened Def Con from 0.00494824 +++++++++++++++++++++++to 0.00494824
Heightened Def Con from 0.00494909 to 0.00494909
Heightened Def Con from 0.00494909 ++++++++++++++++++++++++to 0.00494909
Heightened Def Con from 0.00494995 +++++++++++++++++++++++++++++++to 0.00494995
Heightened Def Con from 0.00494995 +++++++++++++++++++++++++to 0.00494995
Heightened Def Con from 0.00495079 +++++++++++++++++++++++to 0.0049508
Heightened Def Con from 0.00495164 to 0.00495164
Heightened Def Con from 0.00495249 +++++++++++++++++++++++to 0.00495249
Heightened Def Con from 0.00495333 +++++++++++++++++++++++to 0.00495333
Heightened Def Con from 0.00495418 +++++++++++++++++++++++to 0.00495418
Heightened Def Con from 0.00495502 +++++++++++++++++++++++to 0.00495502
Heightened Def Con from 0.00495587 +++++++++++++++++++++++to 0.00495587
Heightened Def Con from 0.00495671 +++++++++++++++++++++++to 0.00495671
Heightened Def Con from 0.00496053 ++++++++++++++++++++++++++++++to 0.00496054
Heightened Def Con from 0.00496054 +++++++++++++++++++++++++to 0.00496054
Heightened Def Con from 0.00496097 +++++++++++++++++++++++++++++++to 0.00496097
Heightened Def Con from 0.00496097 +++++++++++++++++++++++++to 0.00496098
Heightened Def Con from 0.00496182 to 0.00496182
Heightened Def Con from 0.00496225 to 0.00496225
Heightened Def Con from 0.00496354 +++++++++++++++++++++++to 0.00496354
Heightened Def Con from 0.00496439 +++++++++++++++++++++++to 0.00496439
Heightened Def Con from 0.00496523 +++++++++++++++++++++++to 0.00496523
Heightened Def Con from 0.00496608 +++++++++++++++++++++++to 0.00496608
Heightened Def Con from 0.00496692 +++++++++++++++++++++++to 0.00496692
Heightened Def Con from 0.00496777 +++++++++++++++++++++++to 0.00496777
Heightened Def Con from 0.00496946 +++++++++++++++++++++++to 0.00496946
Heightened Def Con from 0.0049703 ++++++++++++++++++++++++to 0.0049703
Heightened Def Con from 0.00497115 +++++++++++++++++++++++to 0.00497115
Heightened Def Con from 0.004972 to 0.004972
Heightened Def Con from 0.00497284 ++++++++++++++++++++++++to 0.00497284
Heightened Def Con from 0.00497369 to 0.00497369
Heightened Def Con from 0.00497411 ++++++++++++++++++++++++to 0.00497411
Heightened Def Con from 0.00497453 to 0.00497453
Heightened Def Con from 0.00497496 ++++++++++++++++++++++++to 0.00497496
Heightened Def Con from 0.00497538 to 0.00497538
Heightened Def Con from 0.00497623 +++++++++++++++++++++++to 0.00497623
Heightened Def Con from 0.00497707 to 0.00497707
Heightened Def Con from 0.00497707 to 0.00497707
Heightened Def Con from 0.00497792 to 0.00497792
Heightened Def Con from 0.00497792 to 0.00497792
Heightened Def Con from 0.00497876 to 0.00497876
Heightened Def Con from 0.00497876 to 0.00497876
Heightened Def Con from 0.00497961 ++++++++++++++++++++++++to 0.00497961
Heightened Def Con from 0.00498005 +++++++++++++++++++++++++++++++to 0.00498005
Heightened Def Con from 0.00498005 +++++++++++++++++++++++++to 0.00498005
Heightened Def Con from 0.00498089 +++++++++++++++++++++++to 0.00498089
Heightened Def Con from 0.00498131 to 0.00498131
Heightened Def Con from 0.00498174 ++++++++++++++++++++++++to 0.00498174
Heightened Def Con from 0.00498216 to 0.00498216
Heightened Def Con from 0.004983 +++++++++++++++++++++++to 0.004983
Heightened Def Con from 0.00498385 to 0.00498385
Heightened Def Con from 0.00498385 to 0.00498385
Heightened Def Con from 0.00498469 to 0.00498469
Heightened Def Con from 0.00498469 to 0.0049847
Heightened Def Con from 0.00498554 to 0.00498554
Heightened Def Con from 0.00498554 to 0.00498554
Heightened Def Con from 0.00498639 to 0.00498639
Heightened Def Con from 0.00498639 to 0.00498639
Heightened Def Con from 0.00498723 ++++++++++++++++++++++++to 0.00498723
Heightened Def Con from 0.00498808 +++++++++++++++++++++++to 0.00498808
Heightened Def Con from 0.00498893 ++++++++++++++++++++++++to 0.00498893
Heightened Def Con from 0.00498978 +++++++++++++++++++++++++++++++to 0.00498978
Heightened Def Con from 0.00498978 +++++++++++++++++++++++++to 0.00498979
Heightened Def Con from 0.00499063 +++++++++++++++++++++++to 0.00499063
Heightened Def Con from 0.00499148 to 0.00499148
Heightened Def Con from 0.00499232 +++++++++++++++++++++++to 0.00499232
Heightened Def Con from 0.00499317 +++++++++++++++++++++++to 0.00499317
Heightened Def Con from 0.00499401 +++++++++++++++++++++++to 0.00499402
Heightened Def Con from 0.00499486 +++++++++++++++++++++++to 0.00499486
Heightened Def Con from 0.0049957 +++++++++++++++++++++++to 0.00499571
Heightened Def Con from 0.00499655 +++++++++++++++++++++++to 0.00499655

Date: Sat Aug 29 21:12:26 2020
Total elapsed time: 573.784 seconds.

tnom = 27
temp = 27
method = modified trap
totiter = 15852564
traniter = 15852542
tranpoints = 2330052
accept = 1054016
rejected = 1379571
matrix size = 123
fillins = 0
solver = Normal
Thread vector: 21.5/12.2[4] 9.0/5.8[4] 4.2/5.0[1] 0.6/8.0[1]  2592/500
Matrix Compiler1: 3.64 KB object code size  2.1/1.5/[0.6]
Matrix Compiler2: 6.31 KB object code size  1.3/2.8/[1.0]

