Circuit: * Z:\mnt\Documentos\Facultad\Electronica Aplicada III\Practicos\repo\EAIII\TP 3\simulaciones\PLL.asc

WARNING: Less than two connections to node N005.  This node is used by D:U1:3.
WARNING: Less than two connections to node NC_01.  This node is used by R:U2:OUT0:OUT.
WARNING: Less than two connections to node NC_02.  This node is used by R:U2:OUT1:OUT.
WARNING: Less than two connections to node NC_03.  This node is used by R:U2:OUT2:OUT.
WARNING: Less than two connections to node NC_04.  This node is used by R:U2:OUT3:OUT.
WARNING: Less than two connections to node NC_05.  This node is used by R:U2:OUT4:OUT.
WARNING: Less than two connections to node NC_06.  This node is used by R:U2:OUT5:OUT.
WARNING: Less than two connections to node NC_07.  This node is used by R:U2:OUT6:OUT.
WARNING: Less than two connections to node NC_08.  This node is used by R:U2:OUT7:OUT.
WARNING: Less than two connections to node NC_09.  This node is used by R:U2:OUT8:OUT.
WARNING: Less than two connections to node NC_10.  This node is used by R:U2:OUT9:OUT.
Direct Newton iteration for .op point succeeded.
Ignoring empty pin current: Ix(u2:vdd)
Ignoring empty pin current: Ix(u2:vdd)

Date: Sun Aug 30 01:25:36 2020
Total elapsed time: 50.068 seconds.

tnom = 27
temp = 27
method = modified trap
totiter = 760471
traniter = 760449
tranpoints = 233423
accept = 176797
rejected = 56626
matrix size = 122
fillins = 2
solver = Normal
Thread vector: 21.0/13.6[4] 8.5/9.3[1] 6.0/10.1[1] 0.6/5.0[1]  2592/500
Matrix Compiler1: 3.75 KB object code size  3.1/2.3/[0.7]
Matrix Compiler2: 6.51 KB object code size  2.0/4.2/[1.1]

