Circuit: * Z:\mnt\Documentos\Facultad\Electronica Aplicada III\Practicos\repo\EAIII\TP 3\simulaciones\VCO\PLL.asc

WARNING: Node N004 is floating.

WARNING: Less than two connections to node N004.  This node is used by A:U1:2.
WARNING: Less than two connections to node N008.  This node is used by D:U1:3.
Direct Newton iteration for .op point succeeded.

Date: Sun Aug 30 15:56:30 2020
Total elapsed time: 0.534 seconds.

tnom = 27
temp = 27
method = modified trap
totiter = 29485
traniter = 29463
tranpoints = 7558
accept = 5843
rejected = 1715
matrix size = 40
fillins = 0
solver = Normal
Matrix Compiler1: 1.40 KB object code size  0.6/0.4/[0.3]
Matrix Compiler2: off  [0.4]/0.6/0.5

