Circuit: * Z:\mnt\Documentos\Facultad\Electronica Aplicada III\Practicos\repo\EAIII\TP 3\simulaciones\VCO\PLL.asc

WARNING: Node N004 is floating.

WARNING: Less than two connections to node N004.  This node is used by A:U1:2.
WARNING: Less than two connections to node N008.  This node is used by D:U1:3.
Direct Newton iteration for .op point succeeded.

Date: Sun Aug 30 20:46:25 2020
Total elapsed time: 0.654 seconds.

tnom = 27
temp = 27
method = modified trap
totiter = 35668
traniter = 35646
tranpoints = 10179
accept = 7846
rejected = 2333
matrix size = 40
fillins = 0
solver = Normal
Matrix Compiler1: 1.40 KB object code size  1.2/0.7/[0.5]
Matrix Compiler2: 2.36 KB object code size  0.8/1.4/[0.8]

